pglib_opf_case2848_rte.m
%%%%%%%%%%%%%%%%%%%%%%%%%%%%%%%%%%%%%%%%%%%%%%%%%%%%%%%%%%%%%%%%%%%%%%%%%%%
%%%%                                                                  %%%%%
%%%%    IEEE PES Power Grid Library - Optimal Power Flow - v17.08     %%%%%
%%%%          (https://github.com/power-grid-lib/pglib-opf)           %%%%%
%%%%               Benchmark Group - Typical Operations               %%%%%
%%%%                        30 - August - 2017                        %%%%%
%%%%                                                                  %%%%%
%%%%%%%%%%%%%%%%%%%%%%%%%%%%%%%%%%%%%%%%%%%%%%%%%%%%%%%%%%%%%%%%%%%%%%%%%%%
%
%CASE2848RTE
%   AC Power flow data for French system.
%   Please see CASEFORMAT for details on the case file format.
%
%   This case accurately represents the size and complexity of French
%   very high voltage transmission network.
%   Part of this data was sampled in the offline platform of iTesla.
%   These data can be used to validate mathematical methods and tools.
%   These data should NOT be used for operation
%   nor planning of the French or European grids.
%
%   When publishing results using this data, please cite:
%     C. Josz, S. Fliscounakis, J. Maeght, and P. Panciatici,
%     "AC Power Flow Data in MATPOWER and QCQP Format: iTesla, RTE Snapshots, and PEGASE"
%     http://arxiv.org/abs/1603.01533
%
%   Contacts (primary contact for this file : Jean Maeght):
%   Cédric Josz, Stéphane Fliscounakis, Jean Maeght, Patrick Panciatici
%   firstname.lastname@rte-france.com
%   Réseau de Transport d'Electricité (French Transmission System Operator)
%   Département Expertise Système, Immeuble "Le Colbert"
%   9 rue de la Porte de Buc, 78000 Versailles Cedex, France
%   March 4th, 2016
%
%   Copyright (c) 2016 by Cédric Josz, Stéphane Fliscounakis, Jean Maeght,
%   and Patrick Panciatici
%   Licensed under the Creative Commons Attribution 4.0 International license,
%   http://creativecommons.org/licenses/by/4.0/
%
function mpc = pglib_opf_case2848_rte
mpc.version = '2';
mpc.baseMVA = 100.0;

%% bus data
%	bus_i	type	Pd	Qd	Gs	Bs	area	Vm	Va	baseKV	zone	Vmax	Vmin
mpc.bus = [
	1	 1	 20.6	 0.0	 0.0	 0.0	 1	    1.00000	    0.00000	 63.0	 1	    1.06349	    0.93651;
	2	 1	 20.9	 17.2	 0.0	 0.0	 1	    0.98889	    0.00000	 225.0	 1	    1.08889	    0.88889;
	3	 1	 0.0	 0.0	 0.0	 0.0	 1	    1.05131	    0.00000	 380.0	 1	    1.10263	    1.00000;
	4	 1	 0.0	 0.0	 0.0	 0.0	 1	    1.00000	    0.00000	 63.0	 1	    1.07937	    0.92063;
	5	 1	 0.4	 0.1	 0.0	 0.0	 1	    0.94444	    0.00000	 45.0	 1	    1.00000	    0.88889;
	6	 1	 -2.3	 -20.6	 0.0	 0.0	 1	    0.94444	    0.00000	 45.0	 1	    1.00000	    0.88889;
	7	 1	 110.5	 -25.5	 0.0	 0.0	 1	    1.04222	    0.00000	 225.0	 1	    1.08444	    1.00000;
	8	 1	 44.7	 1.5	 0.0	 0.0	 1	    1.01587	    0.00000	 63.0	 1	    1.06349	    0.96825;
	9	 1	 0.0	 0.0	 0.0	 -21.0	 1	    1.00000	    0.00000	 20.0	 1	    1.20000	    0.80000;
	2966	 1	 0.0	 0.0	 0.0	 -64.0	 1	    1.00000	    0.00000	 20.0	 1	    1.20000	    0.80000;
	10	 1	 0.0	 0.0	 0.0	 0.0	 1	    1.00334	    0.00000	 150.0	 1	    1.10667	    0.90000;
	11	 1	 31.7	 -8.7	 0.0	 0.0	 1	    1.01111	    0.00000	 225.0	 1	    1.08889	    0.93333;
	2571	 1	 43.7	 9.9	 0.0	 0.0	 1	    1.01111	    0.00000	 225.0	 1	    1.08889	    0.93333;
	12	 1	 0.0	 0.0	 0.0	 0.0	 1	    1.05263	    0.00000	 380.0	 1	    1.10526	    1.00000;
	13	 1	 0.0	 0.0	 0.0	 0.0	 1	    1.04534	    0.00000	 225.0	 1	    1.09067	    1.00000;
	14	 1	 -4.1	 3.7	 0.0	 0.0	 1	    1.00000	    0.00000	 63.0	 1	    1.06349	    0.93651;
	15	 1	 9.0	 -3.3	 0.0	 0.0	 1	    1.00000	    0.00000	 63.0	 1	    1.06349	    0.93651;
	16	 1	 120.0	 6.3	 0.0	 0.0	 1	    1.01111	    0.00000	 225.0	 1	    1.08889	    0.93333;
	17	 1	 35.0	 6.9	 0.0	 0.0	 1	    1.04445	    0.00000	 225.0	 1	    1.08889	    1.00000;
	18	 1	 45.0	 13.4	 0.0	 0.0	 1	    1.04481	    0.00000	 225.0	 1	    1.08962	    1.00000;
	19	 2	 0.0	 0.0	 0.0	 0.0	 1	    1.00362	    0.00000	 63.0	 1	    1.08661	    0.92063;
	20	 1	 77.3	 29.1	 0.0	 0.0	 1	    1.04445	    0.00000	 225.0	 1	    1.08889	    1.00000;
	21	 1	 48.4	 4.0	 0.0	 0.0	 1	    0.98889	    0.00000	 225.0	 1	    1.08889	    0.88889;
	22	 1	 4.6	 -11.4	 0.0	 0.0	 1	    1.00450	    0.00000	 63.0	 1	    1.07249	    0.93651;
	23	 1	 33.3	 -5.7	 0.0	 0.0	 1	    1.00000	    0.00000	 63.0	 1	    1.06349	    0.93651;
	24	 1	 0.0	 0.0	 0.0	 0.0	 1	    1.04445	    0.00000	 225.0	 1	    1.08889	    1.00000;
	2573	 1	 0.0	 0.0	 0.0	 0.0	 1	    1.04445	    0.00000	 225.0	 1	    1.08889	    1.00000;
	25	 1	 18.0	 5.6	 0.0	 0.0	 1	    0.98889	    0.00000	 225.0	 1	    1.08889	    0.88889;
	26	 1	 1.0	 -8.0	 0.0	 0.0	 1	    1.04158	    0.00000	 225.0	 1	    1.09649	    0.98667;
	27	 1	 22.0	 -5.6	 0.0	 0.0	 1	    1.00000	    0.00000	 63.0	 1	    1.06349	    0.93651;
	28	 1	 -2.1	 -0.1	 0.0	 0.0	 1	    1.04445	    0.00000	 225.0	 1	    1.08889	    1.00000;
	2574	 1	 39.1	 10.0	 0.0	 0.0	 1	    1.04445	    0.00000	 225.0	 1	    1.08889	    1.00000;
	29	 1	 7.1	 -2.6	 0.0	 0.0	 1	    1.00000	    0.00000	 63.0	 1	    1.06349	    0.93651;
	30	 1	 3.5	 -40.0	 0.0	 0.0	 1	    1.04445	    0.00000	 225.0	 1	    1.08889	    1.00000;
	31	 1	 7.7	 -1.8	 0.0	 0.0	 1	    1.00431	    0.00000	 63.0	 1	    1.07211	    0.93651;
	32	 1	 12.1	 2.1	 0.0	 0.0	 1	    1.00000	    0.00000	 63.0	 1	    1.06349	    0.93651;
	33	 1	 2.4	 -0.4	 0.0	 0.0	 1	    0.94444	    0.00000	 45.0	 1	    1.00000	    0.88889;
	34	 1	 -0.0	 0.0	 0.0	 0.0	 1	    0.94444	    0.00000	 45.0	 1	    1.00000	    0.88889;
	35	 1	 26.0	 0.1	 0.0	 0.0	 1	    1.01587	    0.00000	 63.0	 1	    1.06349	    0.96825;
	36	 1	 0.7	 -4.1	 0.0	 0.0	 1	    0.94444	    0.00000	 45.0	 1	    1.00000	    0.88889;
	37	 1	 9.3	 -5.3	 0.0	 0.0	 1	    1.00000	    0.00000	 63.0	 1	    1.06349	    0.93651;
	39	 1	 78.4	 -4.8	 0.0	 0.0	 1	    1.03800	    0.00000	 225.0	 1	    1.08934	    0.98667;
	40	 1	 25.1	 -3.3	 0.0	 0.0	 1	    0.98889	    0.00000	 225.0	 1	    1.08889	    0.88889;
	41	 1	 80.4	 7.4	 0.0	 0.0	 1	    1.04222	    0.00000	 225.0	 1	    1.08444	    1.00000;
	42	 1	 37.8	 2.9	 0.0	 0.0	 1	    1.00010	    0.00000	 63.0	 1	    1.06370	    0.93651;
	43	 1	 0.0	 0.0	 0.0	 0.0	 1	    1.01111	    0.00000	 225.0	 1	    1.08889	    0.93333;
	44	 1	 29.0	 -10.0	 0.0	 0.0	 1	    1.01587	    0.00000	 63.0	 1	    1.06349	    0.96825;
	45	 1	 97.4	 -3.0	 0.0	 0.0	 1	    1.04445	    0.00000	 225.0	 1	    1.08889	    1.00000;
	46	 1	 0.0	 0.0	 0.0	 0.0	 1	    1.05263	    0.00000	 380.0	 1	    1.10526	    1.00000;
	2575	 1	 0.0	 0.0	 0.0	 0.0	 1	    1.05263	    0.00000	 380.0	 1	    1.10526	    1.00000;
	47	 1	 21.3	 -2.6	 0.0	 0.0	 1	    1.00128	    0.00000	 63.0	 1	    1.06606	    0.93651;
	48	 1	 -0.3	 0.8	 0.0	 0.0	 1	    1.00193	    0.00000	 63.0	 1	    1.06735	    0.93651;
	49	 1	 11.6	 3.2	 0.0	 0.0	 1	    1.01587	    0.00000	 63.0	 1	    1.06349	    0.96825;
	2576	 1	 9.3	 4.7	 0.0	 0.0	 1	    1.01587	    0.00000	 63.0	 1	    1.06349	    0.96825;
	50	 1	 0.0	 0.0	 0.0	 0.0	 1	    1.04222	    0.00000	 225.0	 1	    1.08444	    1.00000;
	51	 1	 66.6	 0.0	 0.0	 0.0	 1	    1.04222	    0.00000	 225.0	 1	    1.08444	    1.00000;
	52	 1	 0.0	 0.0	 0.0	 0.0	 1	    1.04445	    0.00000	 225.0	 1	    1.08889	    1.00000;
	2942	 1	 53.9	 11.2	 0.0	 0.0	 1	    1.04445	    0.00000	 225.0	 1	    1.08889	    1.00000;
	53	 2	 7.9	 -4.7	 0.0	 0.0	 1	    1.01587	    0.00000	 63.0	 1	    1.06349	    0.96825;
	54	 1	 0.0	 0.0	 0.0	 0.0	 1	    1.02333	    0.00000	 150.0	 1	    1.08000	    0.96667;
	55	 1	 40.5	 8.5	 0.0	 0.0	 1	    1.04730	    0.00000	 225.0	 1	    1.09459	    1.00000;
	56	 1	 0.0	 0.0	 0.0	 0.0	 1	    1.05263	    0.00000	 380.0	 1	    1.10526	    1.00000;
	57	 1	 80.2	 -7.7	 0.0	 0.0	 1	    1.03778	    0.00000	 225.0	 1	    1.08889	    0.98667;
	58	 1	 0.0	 0.0	 0.0	 -64.0	 1	    1.00000	    0.00000	 20.0	 1	    1.20000	    0.80000;
	59	 1	 35.3	 -9.2	 0.0	 0.0	 1	    1.02889	    0.00000	 225.0	 1	    1.08889	    0.96889;
	60	 1	 58.9	 2.6	 0.0	 0.0	 1	    1.05263	    0.00000	 380.0	 1	    1.10526	    1.00000;
	61	 1	 5.5	 1.7	 0.0	 0.0	 1	    1.00000	    0.00000	 63.0	 1	    1.06349	    0.93651;
	62	 1	 0.6	 0.7	 0.0	 0.0	 1	    1.01587	    0.00000	 63.0	 1	    1.06349	    0.96825;
	63	 1	 28.6	 4.1	 0.0	 0.0	 1	    1.01587	    0.00000	 63.0	 1	    1.06349	    0.96825;
	2577	 1	 0.0	 0.0	 0.0	 0.0	 1	    1.01587	    0.00000	 63.0	 1	    1.06349	    0.96825;
	64	 1	 39.6	 9.4	 0.0	 0.0	 1	    1.01111	    0.00000	 225.0	 1	    1.08889	    0.93333;
	65	 1	 0.0	 0.0	 0.0	 0.0	 1	    1.01587	    0.00000	 63.0	 1	    1.06349	    0.96825;
	66	 1	 12.5	 -6.5	 0.0	 0.0	 1	    0.94444	    0.00000	 45.0	 1	    1.00000	    0.88889;
	2578	 2	 0.0	 0.0	 0.0	 0.0	 1	    0.94444	    0.00000	 45.0	 1	    1.00000	    0.88889;
	67	 1	 0.4	 3.2	 0.0	 0.0	 1	    0.98889	    0.00000	 225.0	 1	    1.08889	    0.88889;
	2579	 1	 42.5	 7.2	 0.0	 0.0	 1	    0.98889	    0.00000	 225.0	 1	    1.08889	    0.88889;
	68	 1	 4.2	 -2.2	 0.0	 0.0	 1	    1.00000	    0.00000	 20.0	 1	    1.20000	    0.80000;
	69	 1	 139.3	 4.7	 0.0	 0.0	 1	    1.04343	    0.00000	 225.0	 1	    1.08685	    1.00000;
	70	 1	 83.7	 -8.3	 0.0	 0.0	 1	    1.04445	    0.00000	 225.0	 1	    1.08889	    1.00000;
	71	 2	 0.0	 0.0	 0.0	 0.0	 1	    1.00442	    0.00000	 150.0	 1	    1.10885	    0.90000;
	72	 1	 0.0	 0.0	 0.0	 0.0	 1	    1.04445	    0.00000	 225.0	 1	    1.08889	    1.00000;
	2580	 1	 0.0	 0.0	 0.0	 0.0	 1	    1.04445	    0.00000	 225.0	 1	    1.08889	    1.00000;
	74	 1	 0.0	 0.0	 0.0	 -80.0	 1	    1.04445	    0.00000	 225.0	 1	    1.08889	    1.00000;
	75	 1	 15.2	 5.4	 0.0	 0.0	 1	    1.00000	    0.00000	 63.0	 1	    1.06349	    0.93651;
	76	 2	 0.0	 0.0	 0.0	 0.0	 1	    0.94444	    0.00000	 45.0	 1	    1.00000	    0.88889;
	77	 1	 5.7	 -1.3	 0.0	 0.0	 1	    1.00272	    0.00000	 63.0	 1	    1.08481	    0.92063;
	78	 1	 7.8	 5.8	 0.0	 0.0	 1	    1.04445	    0.00000	 225.0	 1	    1.08889	    1.00000;
	79	 1	 14.0	 -4.6	 0.0	 0.0	 1	    1.00000	    0.00000	 63.0	 1	    1.07937	    0.92063;
	80	 1	 7.1	 -2.3	 0.0	 0.0	 1	    1.00404	    0.00000	 63.0	 1	    1.08744	    0.92063;
	81	 1	 0.0	 0.0	 0.0	 0.0	 1	    1.04445	    0.00000	 225.0	 1	    1.08889	    1.00000;
	82	 1	 59.6	 24.0	 0.0	 0.0	 1	    0.98889	    0.00000	 225.0	 1	    1.08889	    0.88889;
	83	 1	 27.8	 -7.5	 0.0	 0.0	 1	    1.01544	    0.00000	 63.0	 1	    1.06349	    0.96740;
	84	 1	 61.1	 -4.5	 0.0	 0.0	 1	    1.02889	    0.00000	 225.0	 1	    1.08889	    0.96889;
	85	 1	 0.0	 0.0	 0.0	 0.0	 1	    1.05263	    0.00000	 380.0	 1	    1.10526	    1.00000;
	86	 1	 31.8	 1.0	 0.0	 0.0	 1	    1.01587	    0.00000	 63.0	 1	    1.06349	    0.96825;
	87	 1	 22.8	 -0.9	 0.0	 0.0	 1	    1.01587	    0.00000	 63.0	 1	    1.06349	    0.96825;
	88	 1	 2.1	 0.8	 0.0	 0.0	 1	    1.01587	    0.00000	 63.0	 1	    1.06349	    0.96825;
	89	 1	 30.5	 6.3	 0.0	 0.0	 1	    1.01587	    0.00000	 63.0	 1	    1.06349	    0.96825;
	2581	 1	 32.0	 12.1	 0.0	 0.0	 1	    1.01587	    0.00000	 63.0	 1	    1.06349	    0.96825;
	90	 1	 0.0	 0.0	 0.0	 0.0	 1	    1.04222	    0.00000	 225.0	 1	    1.08444	    1.00000;
	2582	 1	 0.0	 0.0	 0.0	 0.0	 1	    1.04222	    0.00000	 225.0	 1	    1.08444	    1.00000;
	91	 1	 89.3	 -15.7	 0.0	 0.0	 1	    1.04445	    0.00000	 225.0	 1	    1.08889	    1.00000;
	92	 1	 6.4	 -11.6	 0.0	 0.0	 1	    1.01187	    0.00000	 225.0	 1	    1.09041	    0.93333;
	93	 2	 0.0	 0.0	 0.0	 0.0	 1	    1.00453	    0.00000	 150.0	 1	    1.10907	    0.90000;
	94	 1	 37.7	 57.2	 0.0	 0.0	 1	    1.04222	    0.00000	 225.0	 1	    1.08444	    1.00000;
	2583	 1	 33.4	 -0.5	 0.0	 0.0	 1	    1.04222	    0.00000	 225.0	 1	    1.08444	    1.00000;
	95	 1	 0.0	 0.0	 0.0	 0.0	 1	    1.03333	    0.00000	 225.0	 1	    1.08889	    0.97778;
	96	 1	 9.0	 0.8	 0.0	 0.0	 1	    0.98889	    0.00000	 225.0	 1	    1.08889	    0.88889;
	97	 1	 35.8	 4.5	 0.0	 0.0	 1	    1.01587	    0.00000	 63.0	 1	    1.06349	    0.96825;
	98	 1	 16.5	 -8.7	 0.0	 0.0	 1	    1.01111	    0.00000	 225.0	 1	    1.08889	    0.93333;
	99	 1	 28.6	 5.0	 0.0	 0.0	 1	    1.04445	    0.00000	 225.0	 1	    1.08889	    1.00000;
	2584	 1	 14.5	 3.6	 0.0	 0.0	 1	    1.04445	    0.00000	 225.0	 1	    1.08889	    1.00000;
	100	 1	 7.3	 -5.1	 0.0	 0.0	 1	    1.04445	    0.00000	 225.0	 1	    1.08889	    1.00000;
	101	 1	 6.4	 2.5	 0.0	 0.0	 1	    1.03778	    0.00000	 225.0	 1	    1.08889	    0.98667;
	102	 1	 0.0	 0.0	 0.0	 0.0	 1	    0.98889	    0.00000	 225.0	 1	    1.08889	    0.88889;
	2585	 1	 0.0	 0.0	 0.0	 0.0	 1	    0.98889	    0.00000	 225.0	 1	    1.08889	    0.88889;
	103	 1	 0.0	 0.0	 0.0	 0.0	 1	    1.05263	    0.00000	 380.0	 1	    1.10526	    1.00000;
	104	 1	 45.6	 7.0	 0.0	 0.0	 1	    1.04445	    0.00000	 225.0	 1	    1.08889	    1.00000;
	2586	 1	 19.1	 5.8	 0.0	 -80.0	 1	    1.04445	    0.00000	 225.0	 1	    1.08889	    1.00000;
	105	 1	 10.1	 -0.9	 0.0	 0.0	 1	    1.00000	    0.00000	 63.0	 1	    1.07937	    0.92063;
	106	 1	 0.0	 0.0	 0.0	 0.0	 1	    1.03333	    0.00000	 225.0	 1	    1.08889	    0.97778;
	2587	 1	 0.0	 0.0	 0.0	 0.0	 1	    1.03333	    0.00000	 225.0	 1	    1.08889	    0.97778;
	107	 1	 8.4	 3.5	 0.0	 0.0	 1	    1.01587	    0.00000	 63.0	 1	    1.06349	    0.96825;
	108	 1	 39.7	 -6.4	 0.0	 0.0	 1	    1.04222	    0.00000	 225.0	 1	    1.08444	    1.00000;
	109	 1	 0.0	 0.0	 0.0	 0.0	 1	    1.04222	    0.00000	 225.0	 1	    1.08444	    1.00000;
	110	 1	 0.0	 0.0	 0.0	 0.0	 1	    1.05131	    0.00000	 380.0	 1	    1.10263	    1.00000;
	111	 1	 62.2	 -16.1	 0.0	 0.0	 1	    1.04222	    0.00000	 225.0	 1	    1.08444	    1.00000;
	112	 1	 2.2	 -1.0	 0.0	 0.0	 1	    1.04517	    0.00000	 225.0	 1	    1.09035	    1.00000;
	2588	 1	 12.3	 -2.0	 0.0	 0.0	 1	    1.04517	    0.00000	 225.0	 1	    1.09035	    1.00000;
	113	 1	 5.0	 -3.8	 0.0	 0.0	 1	    0.98889	    0.00000	 225.0	 1	    1.08889	    0.88889;
	114	 1	 30.0	 0.0	 0.0	 0.0	 1	    1.00000	    0.00000	 63.0	 1	    1.06349	    0.93651;
	115	 1	 11.7	 1.8	 0.0	 0.0	 1	    0.98889	    0.00000	 225.0	 1	    1.08889	    0.88889;
	116	 1	 51.9	 15.9	 0.0	 0.0	 1	    0.98889	    0.00000	 225.0	 1	    1.08889	    0.88889;
	117	 1	 2.6	 0.2	 0.0	 0.0	 1	    1.01587	    0.00000	 63.0	 1	    1.06349	    0.96825;
	118	 1	 38.0	 3.1	 0.0	 0.0	 1	    1.00000	    0.00000	 63.0	 1	    1.07937	    0.92063;
	119	 1	 24.0	 -7.3	 0.0	 0.0	 1	    1.01587	    0.00000	 63.0	 1	    1.06349	    0.96825;
	120	 2	 0.0	 0.0	 0.0	 0.0	 1	    1.00257	    0.00000	 63.0	 1	    1.06863	    0.93651;
	121	 1	 8.0	 2.5	 0.0	 0.0	 1	    1.01587	    0.00000	 63.0	 1	    1.06349	    0.96825;
	2589	 1	 9.9	 3.5	 0.0	 0.0	 1	    1.01587	    0.00000	 63.0	 1	    1.06349	    0.96825;
	122	 1	 77.1	 -3.9	 0.0	 0.0	 1	    1.04445	    0.00000	 225.0	 1	    1.08889	    1.00000;
	123	 1	 21.2	 4.4	 0.0	 0.0	 1	    1.00000	    0.00000	 63.0	 1	    1.07937	    0.92063;
	124	 2	 -0.0	 -4.6	 0.0	 0.0	 1	    1.00133	    0.00000	 63.0	 1	    1.08203	    0.92063;
	125	 1	 0.0	 0.0	 0.0	 0.0	 1	    1.00000	    0.00000	 63.0	 1	    1.07937	    0.92063;
	126	 1	 0.0	 0.0	 0.0	 0.0	 1	    1.04445	    0.00000	 225.0	 1	    1.08889	    1.00000;
	127	 1	 0.0	 0.0	 0.0	 0.0	 1	    1.05263	    0.00000	 380.0	 1	    1.10526	    1.00000;
	128	 1	 17.1	 1.5	 0.0	 0.0	 1	    1.00000	    0.00000	 63.0	 1	    1.06349	    0.93651;
	129	 2	 18.2	 12.2	 0.0	 0.0	 1	    1.00000	    0.00000	 63.0	 1	    1.06349	    0.93651;
	130	 1	 -13.2	 16.1	 0.0	 0.0	 1	    1.00000	    0.00000	 63.0	 1	    1.07937	    0.92063;
	131	 1	 0.0	 0.0	 0.0	 0.0	 1	    1.04445	    0.00000	 225.0	 1	    1.08889	    1.00000;
	132	 1	 81.2	 18.3	 0.0	 0.0	 1	    1.04445	    0.00000	 225.0	 1	    1.08889	    1.00000;
	133	 2	 9.6	 3.3	 0.0	 0.0	 1	    1.01682	    0.00000	 63.0	 1	    1.06538	    0.96825;
	134	 2	 0.0	 0.0	 0.0	 0.0	 1	    1.02333	    0.00000	 150.0	 1	    1.08000	    0.96667;
	135	 2	 -8.9	 -4.4	 0.0	 0.0	 1	    1.00000	    0.00000	 63.0	 1	    1.07937	    0.92063;
	136	 1	 -10.6	 -2.1	 0.0	 0.0	 1	    1.03778	    0.00000	 225.0	 1	    1.08889	    0.98667;
	137	 1	 14.1	 -3.7	 0.0	 0.0	 1	    1.01587	    0.00000	 63.0	 1	    1.06349	    0.96825;
	138	 1	 11.3	 -2.7	 0.0	 0.0	 1	    1.04222	    0.00000	 225.0	 1	    1.08444	    1.00000;
	139	 1	 9.4	 -2.2	 0.0	 0.0	 1	    1.01587	    0.00000	 63.0	 1	    1.06349	    0.96825;
	140	 1	 0.0	 0.0	 0.0	 0.0	 1	    1.05263	    0.00000	 380.0	 1	    1.10526	    1.00000;
	2590	 1	 0.0	 0.0	 0.0	 0.0	 1	    1.05263	    0.00000	 380.0	 1	    1.10526	    1.00000;
	141	 1	 11.1	 4.5	 0.0	 0.0	 1	    1.04445	    0.00000	 225.0	 1	    1.08889	    1.00000;
	142	 1	 7.2	 5.2	 0.0	 0.0	 1	    1.04445	    0.00000	 225.0	 1	    1.08889	    1.00000;
	143	 1	 20.9	 -1.3	 0.0	 0.0	 1	    1.01587	    0.00000	 63.0	 1	    1.06349	    0.96825;
	144	 1	 33.4	 6.5	 0.0	 0.0	 1	    1.00000	    0.00000	 150.0	 1	    1.10000	    0.90000;
	145	 1	 61.8	 -3.3	 0.0	 0.0	 1	    1.04462	    0.00000	 225.0	 1	    1.08925	    1.00000;
	146	 2	 0.0	 -0.0	 0.0	 0.0	 1	    1.04445	    0.00000	 225.0	 1	    1.08889	    1.00000;
	147	 1	 0.0	 0.0	 0.0	 0.0	 1	    1.01111	    0.00000	 225.0	 1	    1.08889	    0.93333;
	148	 1	 0.0	 0.0	 0.0	 0.0	 1	    1.05263	    0.00000	 380.0	 1	    1.10526	    1.00000;
	2591	 1	 0.0	 0.0	 0.0	 0.0	 1	    1.05263	    0.00000	 380.0	 1	    1.10526	    1.00000;
	149	 1	 0.0	 0.0	 0.0	 0.0	 1	    1.04445	    0.00000	 225.0	 1	    1.08889	    1.00000;
	2592	 1	 61.8	 10.2	 0.0	 0.0	 1	    1.04445	    0.00000	 225.0	 1	    1.08889	    1.00000;
	150	 1	 0.0	 0.0	 0.0	 0.0	 1	    1.03778	    0.00000	 225.0	 1	    1.08889	    0.98667;
	151	 1	 9.8	 4.5	 0.0	 0.0	 1	    1.04445	    0.00000	 225.0	 1	    1.08889	    1.00000;
	152	 1	 0.0	 0.0	 0.0	 0.0	 1	    1.00000	    0.00000	 20.0	 1	    1.20000	    0.80000;
	153	 1	 88.2	 -7.1	 0.0	 0.0	 1	    1.01111	    0.00000	 225.0	 1	    1.08889	    0.93333;
	154	 1	 0.0	 0.0	 0.0	 0.0	 1	    1.05263	    0.00000	 380.0	 1	    1.10526	    1.00000;
	155	 1	 23.8	 -12.3	 0.0	 0.0	 1	    1.04445	    0.00000	 225.0	 1	    1.08889	    1.00000;
	156	 1	 18.2	 -0.6	 0.0	 0.0	 1	    1.00077	    0.00000	 63.0	 1	    1.06503	    0.93651;
	157	 1	 0.4	 0.2	 0.0	 0.0	 1	    1.01587	    0.00000	 63.0	 1	    1.06349	    0.96825;
	158	 1	 18.7	 -2.5	 0.0	 0.0	 1	    1.00000	    0.00000	 63.0	 1	    1.07937	    0.92063;
	159	 1	 19.2	 -1.0	 0.0	 0.0	 1	    1.01587	    0.00000	 63.0	 1	    1.06349	    0.96825;
	160	 1	 4.0	 0.2	 0.0	 0.0	 1	    1.00000	    0.00000	 63.0	 1	    1.06349	    0.93651;
	161	 2	 0.0	 0.0	 0.0	 0.0	 1	    0.97500	    0.00000	 63.0	 1	    1.15000	    0.80000;
	162	 1	 2.8	 3.9	 0.0	 0.0	 1	    1.04527	    0.00000	 225.0	 1	    1.09053	    1.00000;
	163	 1	 0.0	 0.0	 0.0	 0.0	 1	    1.01587	    0.00000	 63.0	 1	    1.06349	    0.96825;
	164	 1	 68.7	 -27.8	 0.0	 0.0	 1	    1.04895	    0.00000	 225.0	 1	    1.09791	    1.00000;
	165	 1	 70.9	 -7.8	 0.0	 0.0	 1	    1.03778	    0.00000	 225.0	 1	    1.08889	    0.98667;
	166	 1	 35.7	 1.2	 0.0	 0.0	 1	    1.01587	    0.00000	 63.0	 1	    1.06349	    0.96825;
	167	 1	 66.9	 15.7	 0.0	 0.0	 1	    1.04534	    0.00000	 225.0	 1	    1.09067	    1.00000;
	168	 1	 10.2	 -5.9	 0.0	 0.0	 1	    1.00000	    0.00000	 63.0	 1	    1.06349	    0.93651;
	169	 1	 22.5	 -8.3	 0.0	 0.0	 1	    1.01587	    0.00000	 63.0	 1	    1.06349	    0.96825;
	170	 1	 3.1	 1.2	 0.0	 0.0	 1	    1.00236	    0.00000	 63.0	 1	    1.06822	    0.93651;
	171	 1	 103.9	 36.4	 0.0	 0.0	 1	    1.00667	    0.00000	 225.0	 1	    1.08889	    0.92444;
	172	 2	 -0.0	 0.0	 0.0	 0.0	 1	    1.01587	    0.00000	 63.0	 1	    1.06349	    0.96825;
	173	 1	 46.9	 -16.3	 0.0	 0.0	 1	    1.04141	    0.00000	 225.0	 1	    1.09616	    0.98667;
	174	 1	 0.0	 0.0	 0.0	 0.0	 1	    1.05263	    0.00000	 380.0	 1	    1.10526	    1.00000;
	175	 1	 83.4	 -19.9	 0.0	 0.0	 1	    1.04222	    0.00000	 225.0	 1	    1.08444	    1.00000;
	176	 1	 0.0	 0.0	 0.0	 -64.0	 1	    1.00000	    0.00000	 20.0	 1	    1.20000	    0.80000;
	177	 1	 0.0	 0.0	 0.0	 0.0	 1	    1.01217	    0.00000	 63.0	 1	    1.06349	    0.96086;
	178	 1	 0.0	 0.0	 0.0	 0.0	 1	    1.04222	    0.00000	 225.0	 1	    1.08444	    1.00000;
	179	 1	 0.0	 0.0	 0.0	 0.0	 1	    1.05131	    0.00000	 380.0	 1	    1.10263	    1.00000;
...
];

%% generator data
%	bus	Pg	Qg	Qmax	Qmin	Vg	mBase	status	Pmax	Pmin	Pc1	Pc2	Qc1min	Qc1max	Qc2min	Qc2max	ramp_agc	ramp_10	ramp_30	ramp_q	apf
mpc.gen = [
	1279	 21.0	 0.0	 15.0	 -15.0	 1.037	 100.0	 1	 35.0	 7.0	 0.0	 0.0	 0.0	 0.0	 0.0	 0.0	 0.0	 0.0	 0.0	 0.0	 0.0; % NG
	1210	 21.66	 2.5	 20.0	 -15.0	 1.059	 100.0	 1	 36.1	 7.22	 0.0	 0.0	 0.0	 0.0	 0.0	 0.0	 0.0	 0.0	 0.0	 0.0	 0.0; % PEL
	751	 27.6	 6.0	 21.0	 -9.0	 1.01	 100.0	 1	 46.0	 9.2	 0.0	 0.0	 0.0	 0.0	 0.0	 0.0	 0.0	 0.0	 0.0	 0.0	 0.0; % PEL
	978	 2.0	 0.0	 0.1	 -0.1	 1.071	 100.0	 1	 4.0	 0.0	 0.0	 0.0	 0.0	 0.0	 0.0	 0.0	 0.0	 0.0	 0.0	 0.0	 0.0; % NG
	978	 4.2	 0.95	 1.0	 0.9	 1.071	 100.0	 1	 7.0	 1.4	 0.0	 0.0	 0.0	 0.0	 0.0	 0.0	 0.0	 0.0	 0.0	 0.0	 0.0; % COW
	158	 1.35	 0.0	 0.0	 0.0	 1.024	 100.0	 1	 2.7	 0.0	 0.0	 0.0	 0.0	 0.0	 0.0	 0.0	 0.0	 0.0	 0.0	 0.0	 0.0; % PEL
	1217	 7.8	 0.0	 5.0	 -5.0	 1.053	 100.0	 1	 13.0	 2.6	 0.0	 0.0	 0.0	 0.0	 0.0	 0.0	 0.0	 0.0	 0.0	 0.0	 0.0; % NG
	367	 30.0	 9.0	 27.0	 -9.0	 1.036	 100.0	 1	 50.0	 10.0	 0.0	 0.0	 0.0	 0.0	 0.0	 0.0	 0.0	 0.0	 0.0	 0.0	 0.0; % NG
	1127	 9.6	 0.0	 0.0	 0.0	 1.033	 100.0	 1	 16.0	 3.2	 0.0	 0.0	 0.0	 0.0	 0.0	 0.0	 0.0	 0.0	 0.0	 0.0	 0.0; % COW
	460	 37.2	 0.0	 40.0	 -40.0	 1.077	 100.0	 1	 62.0	 12.4	 0.0	 0.0	 0.0	 0.0	 0.0	 0.0	 0.0	 0.0	 0.0	 0.0	 0.0; % NG
	968	 10.8	 0.0	 10.0	 -10.0	 1.07	 100.0	 1	 18.0	 3.6	 0.0	 0.0	 0.0	 0.0	 0.0	 0.0	 0.0	 0.0	 0.0	 0.0	 0.0; % PEL
	1827	 13.2	 -2.5	 7.0	 -12.0	 1.05	 100.0	 1	 22.0	 4.4	 0.0	 0.0	 0.0	 0.0	 0.0	 0.0	 0.0	 0.0	 0.0	 0.0	 0.0; % NG
	1466	 20.5	 -5.0	 5.0	 -15.0	 1.07	 100.0	 1	 40.0	 1.0	 0.0	 0.0	 0.0	 0.0	 0.0	 0.0	 0.0	 0.0	 0.0	 0.0	 0.0; % COW
	2863	 20.5	 0.0	 6.0	 -6.0	 1.015	 100.0	 1	 40.0	 1.0	 0.0	 0.0	 0.0	 0.0	 0.0	 0.0	 0.0	 0.0	 0.0	 0.0	 0.0; % NG
	1466	 20.5	 -5.0	 5.0	 -15.0	 1.07	 100.0	 1	 40.0	 1.0	 0.0	 0.0	 0.0	 0.0	 0.0	 0.0	 0.0	 0.0	 0.0	 0.0	 0.0; % NG
	2863	 20.5	 0.0	 6.0	 -6.0	 1.015	 100.0	 1	 40.0	 1.0	 0.0	 0.0	 0.0	 0.0	 0.0	 0.0	 0.0	 0.0	 0.0	 0.0	 0.0; % NG
	1072	 7.2	 0.95	 1.0	 0.9	 1.08	 100.0	 1	 12.0	 2.4	 0.0	 0.0	 0.0	 0.0	 0.0	 0.0	 0.0	 0.0	 0.0	 0.0	 0.0; % COW
	1072	 8.4	 0.95	 1.0	 0.9	 1.08	 100.0	 0	 14.0	 2.8	 0.0	 0.0	 0.0	 0.0	 0.0	 0.0	 0.0	 0.0	 0.0	 0.0	 0.0; % NG
	1072	 7.2	 0.95	 1.0	 0.9	 1.08	 100.0	 1	 12.0	 2.4	 0.0	 0.0	 0.0	 0.0	 0.0	 0.0	 0.0	 0.0	 0.0	 0.0	 0.0; % COW
	642	 6.2	 0.0	 3.0	 -3.0	 1.013	 100.0	 1	 10.33	 2.07	 0.0	 0.0	 0.0	 0.0	 0.0	 0.0	 0.0	 0.0	 0.0	 0.0	 0.0; % PEL
	642	 6.2	 0.0	 3.0	 -3.0	 1.013	 100.0	 1	 10.33	 2.07	 0.0	 0.0	 0.0	 0.0	 0.0	 0.0	 0.0	 0.0	 0.0	 0.0	 0.0; % COW
	542	 27.5	 6.0	 22.0	 -10.0	 1.011	 100.0	 1	 50.0	 5.0	 0.0	 0.0	 0.0	 0.0	 0.0	 0.0	 0.0	 0.0	 0.0	 0.0	 0.0; % PEL
	773	 7.2	 0.0	 0.0	 0.0	 1.039	 100.0	 1	 12.0	 2.4	 0.0	 0.0	 0.0	 0.0	 0.0	 0.0	 0.0	 0.0	 0.0	 0.0	 0.0; % NG
	399	 8.28	 0.0	 0.0	 0.0	 1.05	 100.0	 1	 13.8	 2.76	 0.0	 0.0	 0.0	 0.0	 0.0	 0.0	 0.0	 0.0	 0.0	 0.0	 0.0; % NG
	399	 0.6	 0.0	 0.0	 0.0	 1.05	 100.0	 1	 1.2	 0.0	 0.0	 0.0	 0.0	 0.0	 0.0	 0.0	 0.0	 0.0	 0.0	 0.0	 0.0; % PEL
	21	 14.4	 0.0	 0.0	 0.0	 1.026	 100.0	 1	 24.0	 4.8	 0.0	 0.0	 0.0	 0.0	 0.0	 0.0	 0.0	 0.0	 0.0	 0.0	 0.0; % NG
	21	 16.56	 0.0	 0.0	 0.0	 1.026	 100.0	 1	 27.6	 5.52	 0.0	 0.0	 0.0	 0.0	 0.0	 0.0	 0.0	 0.0	 0.0	 0.0	 0.0; % NG
	899	 10.8	 0.0	 0.0	 0.0	 1.057	 100.0	 1	 18.0	 3.6	 0.0	 0.0	 0.0	 0.0	 0.0	 0.0	 0.0	 0.0	 0.0	 0.0	 0.0; % NG
	899	 12.6	 0.0	 0.0	 0.0	 1.057	 100.0	 1	 21.0	 4.2	 0.0	 0.0	 0.0	 0.0	 0.0	 0.0	 0.0	 0.0	 0.0	 0.0	 0.0; % NG
	2618	 3.6	 0.0	 0.0	 0.0	 1.054	 100.0	 1	 6.0	 1.2	 0.0	 0.0	 0.0	 0.0	 0.0	 0.0	 0.0	 0.0	 0.0	 0.0	 0.0; % NG
	2618	 22.5	 2.0	 10.0	 -6.0	 1.054	 100.0	 1	 37.5	 7.5	 0.0	 0.0	 0.0	 0.0	 0.0	 0.0	 0.0	 0.0	 0.0	 0.0	 0.0; % PEL
	285	 3.6	 0.0	 0.0	 0.0	 1.058	 100.0	 1	 6.0	 1.2	 0.0	 0.0	 0.0	 0.0	 0.0	 0.0	 0.0	 0.0	 0.0	 0.0	 0.0; % COW
	285	 22.5	 2.0	 10.0	 -6.0	 1.058	 100.0	 1	 37.5	 7.5	 0.0	 0.0	 0.0	 0.0	 0.0	 0.0	 0.0	 0.0	 0.0	 0.0	 0.0; % PEL
	135	 7.8	 -0.5	 5.0	 -6.0	 1.066	 100.0	 1	 13.0	 2.6	 0.0	 0.0	 0.0	 0.0	 0.0	 0.0	 0.0	 0.0	 0.0	 0.0	 0.0; % NG
	53	 10.8	 0.0	 0.8	 -0.8	 1.05	 100.0	 1	 18.0	 3.6	 0.0	 0.0	 0.0	 0.0	 0.0	 0.0	 0.0	 0.0	 0.0	 0.0	 0.0; % NG
	53	 10.8	 0.0	 0.8	 -0.8	 1.05	 100.0	 1	 18.0	 3.6	 0.0	 0.0	 0.0	 0.0	 0.0	 0.0	 0.0	 0.0	 0.0	 0.0	 0.0; % COW
	596	 2.0	 0.0	 0.0	 0.0	 1.037	 100.0	 1	 4.0	 0.0	 0.0	 0.0	 0.0	 0.0	 0.0	 0.0	 0.0	 0.0	 0.0	 0.0	 0.0; % NG
	958	 2.3	 0.0	 0.0	 0.0	 1.047	 100.0	 1	 4.6	 0.0	 0.0	 0.0	 0.0	 0.0	 0.0	 0.0	 0.0	 0.0	 0.0	 0.0	 0.0; % PEL
	1679	 12.6	 1.0	 6.0	 -4.0	 1.058	 100.0	 1	 21.0	 4.2	 0.0	 0.0	 0.0	 0.0	 0.0	 0.0	 0.0	 0.0	 0.0	 0.0	 0.0; % NG
	1679	 12.6	 1.1	 6.7	 -4.5	 1.058	 100.0	 1	 21.0	 4.2	 0.0	 0.0	 0.0	 0.0	 0.0	 0.0	 0.0	 0.0	 0.0	 0.0	 0.0; % PEL
	1157	 4.32	 0.0	 0.0	 0.0	 1.007	 100.0	 1	 7.2	 1.44	 0.0	 0.0	 0.0	 0.0	 0.0	 0.0	 0.0	 0.0	 0.0	 0.0	 0.0; % PEL
	513	 6.6	 3.0	 5.0	 1.0	 1.024	 100.0	 1	 11.0	 2.2	 0.0	 0.0	 0.0	 0.0	 0.0	 0.0	 0.0	 0.0	 0.0	 0.0	 0.0; % NG
	513	 6.6	 3.0	 5.0	 1.0	 1.024	 100.0	 1	 11.0	 2.2	 0.0	 0.0	 0.0	 0.0	 0.0	 0.0	 0.0	 0.0	 0.0	 0.0	 0.0; % NG
	371	 4.8	 0.0	 5.0	 -5.0	 1.055	 100.0	 1	 8.0	 1.6	 0.0	 0.0	 0.0	 0.0	 0.0	 0.0	 0.0	 0.0	 0.0	 0.0	 0.0; % COW
	371	 4.8	 0.0	 5.0	 -5.0	 1.055	 100.0	 1	 8.0	 1.6	 0.0	 0.0	 0.0	 0.0	 0.0	 0.0	 0.0	 0.0	 0.0	 0.0	 0.0; % PEL
	976	 21.0	 -1.5	 12.0	 -15.0	 1.046	 100.0	 1	 35.0	 7.0	 0.0	 0.0	 0.0	 0.0	 0.0	 0.0	 0.0	 0.0	 0.0	 0.0	 0.0; % PEL
	976	 21.0	 -1.5	 12.0	 -15.0	 1.046	 100.0	 1	 35.0	 7.0	 0.0	 0.0	 0.0	 0.0	 0.0	 0.0	 0.0	 0.0	 0.0	 0.0	 0.0; % NG
	2754	 6.9	 0.0	 0.0	 0.0	 1.029	 100.0	 1	 11.5	 2.3	 0.0	 0.0	 0.0	 0.0	 0.0	 0.0	 0.0	 0.0	 0.0	 0.0	 0.0; % NG
	749	 5.1	 0.0	 5.0	 -5.0	 1.0	 100.0	 1	 8.5	 1.7	 0.0	 0.0	 0.0	 0.0	 0.0	 0.0	 0.0	 0.0	 0.0	 0.0	 0.0; % NG
	1188	 12.0	 1.95	 2.0	 1.9	 1.077	 100.0	 1	 20.0	 4.0	 0.0	 0.0	 0.0	 0.0	 0.0	 0.0	 0.0	 0.0	 0.0	 0.0	 0.0; % NG
	1254	 14.4	 0.0	 7.0	 -7.0	 1.024	 100.0	 1	 24.0	 4.8	 0.0	 0.0	 0.0	 0.0	 0.0	 0.0	 0.0	 0.0	 0.0	 0.0	 0.0; % PEL
	252	 6.6	 1.5	 8.0	 -5.0	 0.998	 100.0	 1	 11.0	 2.2	 0.0	 0.0	 0.0	 0.0	 0.0	 0.0	 0.0	 0.0	 0.0	 0.0	 0.0; % NG
	252	 5.4	 0.5	 6.0	 -5.0	 0.998	 100.0	 1	 9.0	 1.8	 0.0	 0.0	 0.0	 0.0	 0.0	 0.0	 0.0	 0.0	 0.0	 0.0	 0.0; % PEL
	252	 6.6	 1.5	 8.0	 -5.0	 0.998	 100.0	 1	 11.0	 2.2	 0.0	 0.0	 0.0	 0.0	 0.0	 0.0	 0.0	 0.0	 0.0	 0.0	 0.0; % PEL
	252	 5.4	 0.5	 6.0	 -5.0	 0.998	 100.0	 1	 9.0	 1.8	 0.0	 0.0	 0.0	 0.0	 0.0	 0.0	 0.0	 0.0	 0.0	 0.0	 0.0; % NG
	504	 7.44	 0.0	 6.5	 -6.5	 0.983	 100.0	 1	 12.4	 2.48	 0.0	 0.0	 0.0	 0.0	 0.0	 0.0	 0.0	 0.0	 0.0	 0.0	 0.0; % NG
	115	 15.18	 0.0	 0.0	 0.0	 1.03	 100.0	 1	 25.3	 5.06	 0.0	 0.0	 0.0	 0.0	 0.0	 0.0	 0.0	 0.0	 0.0	 0.0	 0.0; % COW
	967	 1.15	 0.0	 0.0	 0.0	 1.07	 100.0	 1	 2.3	 0.0	 0.0	 0.0	 0.0	 0.0	 0.0	 0.0	 0.0	 0.0	 0.0	 0.0	 0.0; % PEL
	1642	 1.5	 0.0	 1.0	 -1.0	 1.035	 100.0	 1	 3.0	 0.0	 0.0	 0.0	 0.0	 0.0	 0.0	 0.0	 0.0	 0.0	 0.0	 0.0	 0.0; % PEL
	1811	 5.4	 0.0	 5.5	 -5.5	 1.03	 100.0	 1	 9.0	 1.8	 0.0	 0.0	 0.0	 0.0	 0.0	 0.0	 0.0	 0.0	 0.0	 0.0	 0.0; % NG
	2634	 8.4	 0.0	 7.0	 -7.0	 1.06	 100.0	 1	 14.0	 2.8	 0.0	 0.0	 0.0	 0.0	 0.0	 0.0	 0.0	 0.0	 0.0	 0.0	 0.0; % PEL
	326	 8.4	 0.0	 7.0	 -7.0	 1.06	 100.0	 1	 14.0	 2.8	 0.0	 0.0	 0.0	 0.0	 0.0	 0.0	 0.0	 0.0	 0.0	 0.0	 0.0; % NG
	1829	 7.68	 0.0	 7.7	 -7.7	 1.03	 100.0	 1	 12.8	 2.56	 0.0	 0.0	 0.0	 0.0	 0.0	 0.0	 0.0	 0.0	 0.0	 0.0	 0.0; % NG
	1314	 23.4	 0.0	 19.0	 -19.0	 1.084	 100.0	 1	 39.0	 7.8	 0.0	 0.0	 0.0	 0.0	 0.0	 0.0	 0.0	 0.0	 0.0	 0.0	 0.0; % NG
	71	 18.0	 3.0	 10.0	 -4.0	 1.079	 100.0	 1	 30.0	 6.0	 0.0	 0.0	 0.0	 0.0	 0.0	 0.0	 0.0	 0.0	 0.0	 0.0	 0.0; % PEL
	93	 3.6	 1.95	 2.0	 1.9	 1.078	 100.0	 1	 6.0	 1.2	 0.0	 0.0	 0.0	 0.0	 0.0	 0.0	 0.0	 0.0	 0.0	 0.0	 0.0; % NG
	129	 6.6	 0.0	 4.0	 -4.0	 1.029	 100.0	 1	 11.0	 2.2	 0.0	 0.0	 0.0	 0.0	 0.0	 0.0	 0.0	 0.0	 0.0	 0.0	 0.0; % NG
	1594	 7.2	 0.0	 5.0	 -5.0	 1.052	 100.0	 1	 12.0	 2.4	 0.0	 0.0	 0.0	 0.0	 0.0	 0.0	 0.0	 0.0	 0.0	 0.0	 0.0; % PEL
	1594	 7.2	 0.0	 5.0	 -5.0	 1.052	 100.0	 1	 12.0	 2.4	 0.0	 0.0	 0.0	 0.0	 0.0	 0.0	 0.0	 0.0	 0.0	 0.0	 0.0; % NG
	1354	 2.5	 0.0	 2.0	 -2.0	 1.032	 100.0	 1	 5.0	 0.0	 0.0	 0.0	 0.0	 0.0	 0.0	 0.0	 0.0	 0.0	 0.0	 0.0	 0.0; % PEL
	1133	 10.35	 0.0	 0.0	 0.0	 1.027	 100.0	 1	 17.25	 3.45	 0.0	 0.0	 0.0	 0.0	 0.0	 0.0	 0.0	 0.0	 0.0	 0.0	 0.0; % PEL
	1405	 22.68	 2.0	 12.0	 -8.0	 1.032	 100.0	 1	 37.8	 7.56	 0.0	 0.0	 0.0	 0.0	 0.0	 0.0	 0.0	 0.0	 0.0	 0.0	 0.0; % PEL
	2850	 22.68	 2.0	 12.0	 -8.0	 1.032	 100.0	 1	 37.8	 7.56	 0.0	 0.0	 0.0	 0.0	 0.0	 0.0	 0.0	 0.0	 0.0	 0.0	 0.0; % NG
	2849	 22.68	 2.0	 12.0	 -8.0	 1.032	 100.0	 1	 37.8	 7.56	 0.0	 0.0	 0.0	 0.0	 0.0	 0.0	 0.0	 0.0	 0.0	 0.0	 0.0; % NG
	1122	 4.14	 0.0	 0.0	 0.0	 1.037	 100.0	 1	 6.9	 1.38	 0.0	 0.0	 0.0	 0.0	 0.0	 0.0	 0.0	 0.0	 0.0	 0.0	 0.0; % PEL
	1708	 44.5	 9.0	 27.0	 -9.0	 1.039	 100.0	 1	 45.0	 44.0	 0.0	 0.0	 0.0	 0.0	 0.0	 0.0	 0.0	 0.0	 0.0	 0.0	 0.0; % COW
	1708	 44.5	 9.0	 27.0	 -9.0	 1.039	 100.0	 1	 45.0	 44.0	 0.0	 0.0	 0.0	 0.0	 0.0	 0.0	 0.0	 0.0	 0.0	 0.0	 0.0; % PEL
	1658	 17.94	 0.0	 0.0	 0.0	 1.042	 100.0	 1	 29.9	 5.98	 0.0	 0.0	 0.0	 0.0	 0.0	 0.0	 0.0	 0.0	 0.0	 0.0	 0.0; % PEL
	2884	 8.22	 0.0	 0.0	 0.0	 1.045	 100.0	 1	 13.7	 2.74	 0.0	 0.0	 0.0	 0.0	 0.0	 0.0	 0.0	 0.0	 0.0	 0.0	 0.0; % COW
	1154	 12.48	 0.0	 0.0	 0.0	 1.036	 100.0	 1	 20.8	 4.16	 0.0	 0.0	 0.0	 0.0	 0.0	 0.0	 0.0	 0.0	 0.0	 0.0	 0.0; % PEL
	231	 4.98	 0.0	 8.3	 -8.3	 1.04	 100.0	 1	 8.3	 1.66	 0.0	 0.0	 0.0	 0.0	 0.0	 0.0	 0.0	 0.0	 0.0	 0.0	 0.0; % NG
	2887	 14.22	 2.0	 7.0	 -3.0	 1.021	 100.0	 1	 23.7	 4.74	 0.0	 0.0	 0.0	 0.0	 0.0	 0.0	 0.0	 0.0	 0.0	 0.0	 0.0; % PEL
	2888	 14.22	 2.0	 7.0	 -3.0	 1.021	 100.0	 1	 23.7	 4.74	 0.0	 0.0	 0.0	 0.0	 0.0	 0.0	 0.0	 0.0	 0.0	 0.0	 0.0; % NG
	2889	 14.22	 2.0	 7.0	 -3.0	 1.021	 100.0	 1	 23.7	 4.74	 0.0	 0.0	 0.0	 0.0	 0.0	 0.0	 0.0	 0.0	 0.0	 0.0	 0.0; % PEL
	1666	 14.22	 2.0	 7.0	 -3.0	 1.021	 100.0	 1	 23.7	 4.74	 0.0	 0.0	 0.0	 0.0	 0.0	 0.0	 0.0	 0.0	 0.0	 0.0	 0.0; % PEL
	499	 10.2	 0.95	 1.0	 0.9	 1.114	 100.0	 1	 17.0	 3.4	 0.0	 0.0	 0.0	 0.0	 0.0	 0.0	 0.0	 0.0	 0.0	 0.0	 0.0; % PEL
	499	 4.2	 0.95	 1.0	 0.9	 1.114	 100.0	 0	 7.0	 1.4	 0.0	 0.0	 0.0	 0.0	 0.0	 0.0	 0.0	 0.0	 0.0	 0.0	 0.0; % COW
	499	 10.2	 0.95	 1.0	 0.9	 1.114	 100.0	 1	 17.0	 3.4	 0.0	 0.0	 0.0	 0.0	 0.0	 0.0	 0.0	 0.0	 0.0	 0.0	 0.0; % NG
	2709	 14.4	 0.0	 4.0	 -4.0	 1.01	 100.0	 1	 24.0	 4.8	 0.0	 0.0	 0.0	 0.0	 0.0	 0.0	 0.0	 0.0	 0.0	 0.0	 0.0; % PEL
	709	 14.4	 0.0	 4.0	 -4.0	 1.01	 100.0	 1	 24.0	 4.8	 0.0	 0.0	 0.0	 0.0	 0.0	 0.0	 0.0	 0.0	 0.0	 0.0	 0.0; % NG
	2710	 14.4	 0.0	 4.0	 -4.0	 1.01	 100.0	 1	 24.0	 4.8	 0.0	 0.0	 0.0	 0.0	 0.0	 0.0	 0.0	 0.0	 0.0	 0.0	 0.0; % COW
	2708	 14.4	 0.0	 4.0	 -4.0	 1.01	 100.0	 1	 24.0	 4.8	 0.0	 0.0	 0.0	 0.0	 0.0	 0.0	 0.0	 0.0	 0.0	 0.0	 0.0; % PEL
	1280	 10.8	 0.0	 0.0	 0.0	 1.039	 100.0	 1	 18.0	 3.6	 0.0	 0.0	 0.0	 0.0	 0.0	 0.0	 0.0	 0.0	 0.0	 0.0	 0.0; % PEL
	1493	 10.8	 0.0	 11.0	 -11.0	 0.998	 100.0	 0	 18.0	 3.6	 0.0	 0.0	 0.0	 0.0	 0.0	 0.0	 0.0	 0.0	 0.0	 0.0	 0.0; % PEL
	745	 17.4	 -5.0	 8.0	 -18.0	 1.02	 100.0	 1	 29.0	 5.8	 0.0	 0.0	 0.0	 0.0	 0.0	 0.0	 0.0	 0.0	 0.0	 0.0	 0.0; % NG
	2727	 17.4	 -6.5	 5.0	 -18.0	 1.029	 100.0	 1	 29.0	 5.8	 0.0	 0.0	 0.0	 0.0	 0.0	 0.0	 0.0	 0.0	 0.0	 0.0	 0.0; % PEL
	1445	 33.0	 0.0	 0.0	 0.0	 1.026	 100.0	 1	 55.0	 11.0	 0.0	 0.0	 0.0	 0.0	 0.0	 0.0	 0.0	 0.0	 0.0	 0.0	 0.0; % NG
	564	 6.0	 0.0	 0.0	 0.0	 1.01	 100.0	 1	 10.0	 2.0	 0.0	 0.0	 0.0	 0.0	 0.0	 0.0	 0.0	 0.0	 0.0	 0.0	 0.0; % NG
	1047	 7.2	 0.0	 0.0	 0.0	 1.038	 100.0	 1	 12.0	 2.4	 0.0	 0.0	 0.0	 0.0	 0.0	 0.0	 0.0	 0.0	 0.0	 0.0	 0.0; % PEL
	1047	 1.0	 0.0	 0.0	 0.0	 1.038	 100.0	 1	 2.0	 0.0	 0.0	 0.0	 0.0	 0.0	 0.0	 0.0	 0.0	 0.0	 0.0	 0.0	 0.0; % PEL
	1335	 1.0	 1.0	 3.0	 -1.0	 1.03	 100.0	 1	 2.0	 0.0	 0.0	 0.0	 0.0	 0.0	 0.0	 0.0	 0.0	 0.0	 0.0	 0.0	 0.0; % PEL
	2624	 18.6	 -1.0	 15.0	 -17.0	 1.07	 100.0	 1	 31.0	 6.2	 0.0	 0.0	 0.0	 0.0	 0.0	 0.0	 0.0	 0.0	 0.0	 0.0	 0.0; % PEL
	298	 18.6	 -1.0	 15.0	 -17.0	 1.06	 100.0	 1	 31.0	 6.2	 0.0	 0.0	 0.0	 0.0	 0.0	 0.0	 0.0	 0.0	 0.0	 0.0	 0.0; % NG
	298	 18.6	 -1.0	 15.0	 -17.0	 1.06	 100.0	 1	 31.0	 6.2	 0.0	 0.0	 0.0	 0.0	 0.0	 0.0	 0.0	 0.0	 0.0	 0.0	 0.0; % NG
	2625	 18.6	 -1.0	 15.0	 -17.0	 1.06	 100.0	 1	 31.0	 6.2	 0.0	 0.0	 0.0	 0.0	 0.0	 0.0	 0.0	 0.0	 0.0	 0.0	 0.0; % NG
	2625	 18.6	 -1.0	 15.0	 -17.0	 1.06	 100.0	 1	 31.0	 6.2	 0.0	 0.0	 0.0	 0.0	 0.0	 0.0	 0.0	 0.0	 0.0	 0.0	 0.0; % PEL
	2624	 18.6	 -1.0	 15.0	 -17.0	 1.07	 100.0	 1	 31.0	 6.2	 0.0	 0.0	 0.0	 0.0	 0.0	 0.0	 0.0	 0.0	 0.0	 0.0	 0.0; % PEL
	2947	 14.4	 -0.005	 0.0	 -0.01	 1.029	 100.0	 1	 24.0	 4.8	 0.0	 0.0	 0.0	 0.0	 0.0	 0.0	 0.0	 0.0	 0.0	 0.0	 0.0; % PEL
	2718	 14.4	 0.5	 8.0	 -7.0	 1.029	 100.0	 1	 24.0	 4.8	 0.0	 0.0	 0.0	 0.0	 0.0	 0.0	 0.0	 0.0	 0.0	 0.0	 0.0; % PEL
	2720	 14.4	 0.5	 8.0	 -7.0	 1.029	 100.0	 1	 24.0	 4.8	 0.0	 0.0	 0.0	 0.0	 0.0	 0.0	 0.0	 0.0	 0.0	 0.0	 0.0; % NG
	741	 14.4	 0.5	 8.0	 -7.0	 1.029	 100.0	 1	 24.0	 4.8	 0.0	 0.0	 0.0	 0.0	 0.0	 0.0	 0.0	 0.0	 0.0	 0.0	 0.0; % COW
	2719	 14.4	 0.5	 8.0	 -7.0	 1.029	 100.0	 1	 24.0	 4.8	 0.0	 0.0	 0.0	 0.0	 0.0	 0.0	 0.0	 0.0	 0.0	 0.0	 0.0; % PEL
	2721	 14.4	 0.5	 8.0	 -7.0	 1.029	 100.0	 1	 24.0	 4.8	 0.0	 0.0	 0.0	 0.0	 0.0	 0.0	 0.0	 0.0	 0.0	 0.0	 0.0; % NG
	283	 14.1	 0.0	 8.0	 -8.0	 1.024	 100.0	 1	 23.5	 4.7	 0.0	 0.0	 0.0	 0.0	 0.0	 0.0	 0.0	 0.0	 0.0	 0.0	 0.0; % PEL
	1506	 16.2	 -2.5	 6.0	 -11.0	 1.029	 100.0	 1	 27.0	 5.4	 0.0	 0.0	 0.0	 0.0	 0.0	 0.0	 0.0	 0.0	 0.0	 0.0	 0.0; % PEL
	1506	 16.2	 -2.5	 6.0	 -11.0	 1.029	 100.0	 1	 27.0	 5.4	 0.0	 0.0	 0.0	 0.0	 0.0	 0.0	 0.0	 0.0	 0.0	 0.0	 0.0; % PEL
	1847	 19.2	 2.0	 12.0	 -8.0	 1.035	 100.0	 1	 32.0	 6.4	 0.0	 0.0	 0.0	 0.0	 0.0	 0.0	 0.0	 0.0	 0.0	 0.0	 0.0; % PEL
	1398	 12.01	 0.0	 0.0	 0.0	 1.021	 100.0	 1	 20.02	 4.0	 0.0	 0.0	 0.0	 0.0	 0.0	 0.0	 0.0	 0.0	 0.0	 0.0	 0.0; % PEL
	1398	 12.21	 0.0	 0.0	 0.0	 1.021	 100.0	 1	 20.35	 4.07	 0.0	 0.0	 0.0	 0.0	 0.0	 0.0	 0.0	 0.0	 0.0	 0.0	 0.0; % NG
	225	 27.0	 0.0	 45.0	 -45.0	 1.05	 100.0	 1	 45.0	 9.0	 0.0	 0.0	 0.0	 0.0	 0.0	 0.0	 0.0	 0.0	 0.0	 0.0	 0.0; % PEL
	225	 27.0	 0.0	 45.0	 -45.0	 1.05	 100.0	 1	 45.0	 9.0	 0.0	 0.0	 0.0	 0.0	 0.0	 0.0	 0.0	 0.0	 0.0	 0.0	 0.0; % NG
	1607	 0.87	 0.0	 0.0	 0.0	 1.038	 100.0	 1	 1.74	 0.0	 0.0	 0.0	 0.0	 0.0	 0.0	 0.0	 0.0	 0.0	 0.0	 0.0	 0.0; % PEL
	314	 12.0	 0.0	 10.0	 -10.0	 0.986	 100.0	 1	 20.0	 4.0	 0.0	 0.0	 0.0	 0.0	 0.0	 0.0	 0.0	 0.0	 0.0	 0.0	 0.0; % NG
	2680	 141.5	 20.0	 100.0	 -60.0	 1.022	 100.0	 1	 239.0	 44.0	 0.0	 0.0	 0.0	 0.0	 0.0	 0.0	 0.0	 0.0	 0.0	 0.0	 0.0; % COW
	582	 125.5	 12.5	 70.0	 -45.0	 0.892	 100.0	 0	 169.0	 82.0	 0.0	 0.0	 0.0	 0.0	 0.0	 0.0	 0.0	 0.0	 0.0	 0.0	 0.0; % PEL
	2978	 125.5	 12.5	 70.0	 -45.0	 0.892	 100.0	 0	 169.0	 82.0	 0.0	 0.0	 0.0	 0.0	 0.0	 0.0	 0.0	 0.0	 0.0	 0.0	 0.0; % NG
	2977	 141.5	 20.0	 100.0	 -60.0	 1.022	 100.0	 1	 239.0	 44.0	 0.0	 0.0	 0.0	 0.0	 0.0	 0.0	 0.0	 0.0	 0.0	 0.0	 0.0; % NG
	240	 143.4	 2.5	 80.0	 -75.0	 1.075	 100.0	 1	 239.0	 47.8	 0.0	 0.0	 0.0	 0.0	 0.0	 0.0	 0.0	 0.0	 0.0	 0.0	 0.0; % NG
	1655	 7.2	 0.0	 0.0	 0.0	 1.016	 100.0	 1	 12.0	 2.4	 0.0	 0.0	 0.0	 0.0	 0.0	 0.0	 0.0	 0.0	 0.0	 0.0	 0.0; % PEL
	1655	 2.0	 0.0	 0.0	 0.0	 1.016	 100.0	 1	 4.0	 0.0	 0.0	 0.0	 0.0	 0.0	 0.0	 0.0	 0.0	 0.0	 0.0	 0.0	 0.0; % NG
	1150	 32.4	 0.0	 0.0	 0.0	 1.047	 100.0	 1	 54.0	 10.8	 0.0	 0.0	 0.0	 0.0	 0.0	 0.0	 0.0	 0.0	 0.0	 0.0	 0.0; % NG
	1447	 4.2	 -0.5	 2.0	 -3.0	 1.063	 100.0	 1	 7.0	 1.4	 0.0	 0.0	 0.0	 0.0	 0.0	 0.0	 0.0	 0.0	 0.0	 0.0	 0.0; % PEL
	906	 12.6	 0.0	 8.0	 -8.0	 1.077	 100.0	 0	 21.0	 4.2	 0.0	 0.0	 0.0	 0.0	 0.0	 0.0	 0.0	 0.0	 0.0	 0.0	 0.0; % PEL
	1474	 1.0	 0.0	 1.0	 -1.0	 1.039	 100.0	 0	 2.0	 0.0	 0.0	 0.0	 0.0	 0.0	 0.0	 0.0	 0.0	 0.0	 0.0	 0.0	 0.0; % PEL
	1474	 4.8	 0.0	 3.0	 -3.0	 1.039	 100.0	 1	 8.0	 1.6	 0.0	 0.0	 0.0	 0.0	 0.0	 0.0	 0.0	 0.0	 0.0	 0.0	 0.0; % PEL
	1474	 4.8	 0.0	 3.0	 -3.0	 1.039	 100.0	 1	 8.0	 1.6	 0.0	 0.0	 0.0	 0.0	 0.0	 0.0	 0.0	 0.0	 0.0	 0.0	 0.0; % COW
	963	 5.34	 -0.5	 1.0	 -2.0	 0.977	 100.0	 1	 8.9	 1.78	 0.0	 0.0	 0.0	 0.0	 0.0	 0.0	 0.0	 0.0	 0.0	 0.0	 0.0; % NG
	962	 13.2	 0.0	 0.0	 0.0	 1.033	 100.0	 1	 22.0	 4.4	 0.0	 0.0	 0.0	 0.0	 0.0	 0.0	 0.0	 0.0	 0.0	 0.0	 0.0; % NG
	923	 7.2	 0.0	 5.0	 -5.0	 1.056	 100.0	 1	 12.0	 2.4	 0.0	 0.0	 0.0	 0.0	 0.0	 0.0	 0.0	 0.0	 0.0	 0.0	 0.0; % NG
	1153	 9.6	 0.0	 17.3	 -17.3	 1.04	 100.0	 1	 16.0	 3.2	 0.0	 0.0	 0.0	 0.0	 0.0	 0.0	 0.0	 0.0	 0.0	 0.0	 0.0; % PEL
	1153	 10.08	 0.0	 10.0	 -10.0	 1.04	 100.0	 1	 16.8	 3.36	 0.0	 0.0	 0.0	 0.0	 0.0	 0.0	 0.0	 0.0	 0.0	 0.0	 0.0; % PEL
	274	 4.02	 0.0	 3.7	 -3.7	 1.054	 100.0	 1	 6.7	 1.34	 0.0	 0.0	 0.0	 0.0	 0.0	 0.0	 0.0	 0.0	 0.0	 0.0	 0.0; % NG
	274	 3.36	 0.0	 3.0	 -3.0	 1.054	 100.0	 1	 5.6	 1.12	 0.0	 0.0	 0.0	 0.0	 0.0	 0.0	 0.0	 0.0	 0.0	 0.0	 0.0; % NG
	1776	 6.0	 0.0	 5.0	 -5.0	 1.035	 100.0	 1	 10.0	 2.0	 0.0	 0.0	 0.0	 0.0	 0.0	 0.0	 0.0	 0.0	 0.0	 0.0	 0.0; % NG
	1776	 6.0	 0.0	 5.0	 -5.0	 1.035	 100.0	 1	 10.0	 2.0	 0.0	 0.0	 0.0	 0.0	 0.0	 0.0	 0.0	 0.0	 0.0	 0.0	 0.0; % NG
	184	 14.04	 -4.5	 8.0	 -17.0	 1.056	 100.0	 1	 23.4	 4.68	 0.0	 0.0	 0.0	 0.0	 0.0	 0.0	 0.0	 0.0	 0.0	 0.0	 0.0; % NG
	1657	 15.6	 -0.5	 16.0	 -17.0	 1.038	 100.0	 1	 26.0	 5.2	 0.0	 0.0	 0.0	 0.0	 0.0	 0.0	 0.0	 0.0	 0.0	 0.0	 0.0; % NG
	1657	 15.6	 -0.5	 16.0	 -17.0	 1.038	 100.0	 1	 26.0	 5.2	 0.0	 0.0	 0.0	 0.0	 0.0	 0.0	 0.0	 0.0	 0.0	 0.0	 0.0; % PEL
	1761	 1.25	 0.0	 0.1	 -0.1	 1.079	 100.0	 1	 2.5	 0.0	 0.0	 0.0	 0.0	 0.0	 0.0	 0.0	 0.0	 0.0	 0.0	 0.0	 0.0; % PEL
	1761	 6.6	 0.95	 1.0	 0.9	 1.079	 100.0	 1	 11.0	 2.2	 0.0	 0.0	 0.0	 0.0	 0.0	 0.0	 0.0	 0.0	 0.0	 0.0	 0.0; % NG
	1868	 18.0	 0.0	 18.0	 -18.0	 1.055	 100.0	 1	 30.0	 6.0	 0.0	 0.0	 0.0	 0.0	 0.0	 0.0	 0.0	 0.0	 0.0	 0.0	 0.0; % PEL
	1868	 18.0	 0.0	 18.0	 -18.0	 1.055	 100.0	 1	 30.0	 6.0	 0.0	 0.0	 0.0	 0.0	 0.0	 0.0	 0.0	 0.0	 0.0	 0.0	 0.0; % NG
	731	 25.8	 0.0	 26.0	 -26.0	 1.053	 100.0	 0	 43.0	 8.6	 0.0	 0.0	 0.0	 0.0	 0.0	 0.0	 0.0	 0.0	 0.0	 0.0	 0.0; % COW
	2715	 22.8	 0.0	 20.0	 -20.0	 1.051	 100.0	 0	 38.0	 7.6	 0.0	 0.0	 0.0	 0.0	 0.0	 0.0	 0.0	 0.0	 0.0	 0.0	 0.0; % NG
	1263	 13.86	 0.0	 14.0	 -14.0	 1.051	 100.0	 1	 23.1	 4.62	 0.0	 0.0	 0.0	 0.0	 0.0	 0.0	 0.0	 0.0	 0.0	 0.0	 0.0; % PEL
	1263	 13.86	 0.0	 14.0	 -14.0	 1.051	 100.0	 1	 23.1	 4.62	 0.0	 0.0	 0.0	 0.0	 0.0	 0.0	 0.0	 0.0	 0.0	 0.0	 0.0; % PEL
	161	 10.8	 0.0	 5.0	 -5.0	 1.063	 100.0	 1	 18.0	 3.6	 0.0	 0.0	 0.0	 0.0	 0.0	 0.0	 0.0	 0.0	 0.0	 0.0	 0.0; % PEL
	604	 6.12	 0.0	 6.0	 -6.0	 1.054	 100.0	 1	 10.2	 2.04	 0.0	 0.0	 0.0	 0.0	 0.0	 0.0	 0.0	 0.0	 0.0	 0.0	 0.0; % NG
	918	 15.6	 0.0	 0.0	 0.0	 1.029	 100.0	 1	 26.0	 5.2	 0.0	 0.0	 0.0	 0.0	 0.0	 0.0	 0.0	 0.0	 0.0	 0.0	 0.0; % COW
	1760	 6.9	 0.0	 1.0	 -1.0	 1.045	 100.0	 1	 11.5	 2.3	 0.0	 0.0	 0.0	 0.0	 0.0	 0.0	 0.0	 0.0	 0.0	 0.0	 0.0; % NG
	1760	 6.9	 0.0	 1.0	 -1.0	 1.045	 100.0	 1	 11.5	 2.3	 0.0	 0.0	 0.0	 0.0	 0.0	 0.0	 0.0	 0.0	 0.0	 0.0	 0.0; % NG
	1414	 7.8	 0.0	 7.8	 -7.8	 1.051	 100.0	 1	 13.0	 2.6	 0.0	 0.0	 0.0	 0.0	 0.0	 0.0	 0.0	 0.0	 0.0	 0.0	 0.0; % NG
	1414	 7.2	 0.0	 7.2	 -7.2	 1.051	 100.0	 1	 12.0	 2.4	 0.0	 0.0	 0.0	 0.0	 0.0	 0.0	 0.0	 0.0	 0.0	 0.0	 0.0; % PEL
	662	 24.0	 1.0	 20.0	 -18.0	 1.059	 100.0	 1	 40.0	 8.0	 0.0	 0.0	 0.0	 0.0	 0.0	 0.0	 0.0	 0.0	 0.0	 0.0	 0.0; % NG
	2697	 24.0	 1.0	 20.0	 -18.0	 1.059	 100.0	 1	 40.0	 8.0	 0.0	 0.0	 0.0	 0.0	 0.0	 0.0	 0.0	 0.0	 0.0	 0.0	 0.0; % NG
	2696	 24.0	 1.0	 20.0	 -18.0	 1.059	 100.0	 1	 40.0	 8.0	 0.0	 0.0	 0.0	 0.0	 0.0	 0.0	 0.0	 0.0	 0.0	 0.0	 0.0; % NG
	1346	 7.2	 0.0	 7.0	 -7.0	 1.051	 100.0	 1	 12.0	 2.4	 0.0	 0.0	 0.0	 0.0	 0.0	 0.0	 0.0	 0.0	 0.0	 0.0	 0.0; % NG
	1346	 7.2	 0.0	 7.0	 -7.0	 1.051	 100.0	 1	 12.0	 2.4	 0.0	 0.0	 0.0	 0.0	 0.0	 0.0	 0.0	 0.0	 0.0	 0.0	 0.0; % NG
	2622	 4.8	 0.0	 26.0	 -26.0	 1.045	 100.0	 1	 8.0	 1.6	 0.0	 0.0	 0.0	 0.0	 0.0	 0.0	 0.0	 0.0	 0.0	 0.0	 0.0; % NG
	2622	 9.0	 0.0	 26.0	 -26.0	 1.045	 100.0	 1	 15.0	 3.0	 0.0	 0.0	 0.0	 0.0	 0.0	 0.0	 0.0	 0.0	 0.0	 0.0	 0.0; % NG
	291	 11.4	 0.0	 26.0	 -26.0	 1.054	 100.0	 1	 19.0	 3.8	 0.0	 0.0	 0.0	 0.0	 0.0	 0.0	 0.0	 0.0	 0.0	 0.0	 0.0; % PEL
	1490	 6.36	 0.0	 6.5	 -6.5	 1.057	 100.0	 1	 10.6	 2.12	 0.0	 0.0	 0.0	 0.0	 0.0	 0.0	 0.0	 0.0	 0.0	 0.0	 0.0; % NG
	1671	 12.84	 0.0	 15.0	 -15.0	 1.023	 100.0	 1	 21.4	 4.28	 0.0	 0.0	 0.0	 0.0	 0.0	 0.0	 0.0	 0.0	 0.0	 0.0	 0.0; % NG
	1615	 23.4	 0.0	 24.0	 -24.0	 1.051	 100.0	 0	 39.0	 7.8	 0.0	 0.0	 0.0	 0.0	 0.0	 0.0	 0.0	 0.0	 0.0	 0.0	 0.0; % COW
	1681	 52.2	 0.87	 26.1	 -24.36	 1.065	 100.0	 1	 87.0	 17.4	 0.0	 0.0	 0.0	 0.0	 0.0	 0.0	 0.0	 0.0	 0.0	 0.0	 0.0; % COW
	418	 45.0	 5.0	 50.0	 -40.0	 1.051	 100.0	 1	 75.0	 15.0	 0.0	 0.0	 0.0	 0.0	 0.0	 0.0	 0.0	 0.0	 0.0	 0.0	 0.0; % PEL
	2658	 45.0	 5.0	 50.0	 -40.0	 1.051	 100.0	 1	 75.0	 15.0	 0.0	 0.0	 0.0	 0.0	 0.0	 0.0	 0.0	 0.0	 0.0	 0.0	 0.0; % NG
	418	 45.0	 5.0	 50.0	 -40.0	 1.051	 100.0	 1	 75.0	 15.0	 0.0	 0.0	 0.0	 0.0	 0.0	 0.0	 0.0	 0.0	 0.0	 0.0	 0.0; % NG
	2658	 45.0	 5.0	 50.0	 -40.0	 1.051	 100.0	 1	 75.0	 15.0	 0.0	 0.0	 0.0	 0.0	 0.0	 0.0	 0.0	 0.0	 0.0	 0.0	 0.0; % PEL
	461	 24.84	 0.415	 12.42	 -11.59	 1.06	 100.0	 1	 41.4	 8.28	 0.0	 0.0	 0.0	 0.0	 0.0	 0.0	 0.0	 0.0	 0.0	 0.0	 0.0; % NG
	31	 4.01	 0.0	 0.0	 0.0	 1.034	 100.0	 1	 6.68	 1.34	 0.0	 0.0	 0.0	 0.0	 0.0	 0.0	 0.0	 0.0	 0.0	 0.0	 0.0; % NG
	236	 9.0	 3.5	 7.0	 0.0	 1.024	 100.0	 1	 15.0	 3.0	 0.0	 0.0	 0.0	 0.0	 0.0	 0.0	 0.0	 0.0	 0.0	 0.0	 0.0; % PEL
	236	 9.0	 3.5	 7.0	 0.0	 1.024	 100.0	 1	 15.0	 3.0	 0.0	 0.0	 0.0	 0.0	 0.0	 0.0	 0.0	 0.0	 0.0	 0.0	 0.0; % PEL
	1754	 0.5	 0.0	 1.0	 -1.0	 1.04	 100.0	 1	 1.0	 0.0	 0.0	 0.0	 0.0	 0.0	 0.0	 0.0	 0.0	 0.0	 0.0	 0.0	 0.0; % PEL
	1754	 0.5	 0.0	 1.0	 -1.0	 1.04	 100.0	 1	 1.0	 0.0	 0.0	 0.0	 0.0	 0.0	 0.0	 0.0	 0.0	 0.0	 0.0	 0.0	 0.0; % PEL
	1754	 0.5	 0.0	 1.0	 -1.0	 1.04	 100.0	 1	 1.0	 0.0	 0.0	 0.0	 0.0	 0.0	 0.0	 0.0	 0.0	 0.0	 0.0	 0.0	 0.0; % PEL
	898	 0.85	 0.0	 0.0	 0.0	 1.047	 100.0	 1	 1.7	 0.0	 0.0	 0.0	 0.0	 0.0	 0.0	 0.0	 0.0	 0.0	 0.0	 0.0	 0.0; % NG
	898	 13.56	 0.0	 0.0	 0.0	 1.047	 100.0	 1	 22.6	 4.52	 0.0	 0.0	 0.0	 0.0	 0.0	 0.0	 0.0	 0.0	 0.0	 0.0	 0.0; % NG
	120	 9.0	 0.0	 9.0	 -9.0	 1.038	 100.0	 1	 15.0	 3.0	 0.0	 0.0	 0.0	 0.0	 0.0	 0.0	 0.0	 0.0	 0.0	 0.0	 0.0; % NG
	549	 27.5	 6.0	 22.0	 -10.0	 1.012	 100.0	 1	 50.0	 5.0	 0.0	 0.0	 0.0	 0.0	 0.0	 0.0	 0.0	 0.0	 0.0	 0.0	 0.0; % NG
	77	 14.1	 0.0	 0.0	 0.0	 1.048	 100.0	 1	 23.5	 4.7	 0.0	 0.0	 0.0	 0.0	 0.0	 0.0	 0.0	 0.0	 0.0	 0.0	 0.0; % PEL
	124	 -3.5	 0.0	 0.0	 0.0	 1.047	 100.0	 1	 0.0	 -7.0	 0.0	 0.0	 0.0	 0.0	 0.0	 0.0	 0.0	 0.0	 0.0	 0.0	 0.0; % SYNC
	124	 -3.5	 0.0	 0.0	 0.0	 1.047	 100.0	 1	 0.0	 -7.0	 0.0	 0.0	 0.0	 0.0	 0.0	 0.0	 0.0	 0.0	 0.0	 0.0	 0.0; % SYNC
	552	 12.6	 0.0	 0.0	 0.0	 1.037	 100.0	 1	 21.0	 4.2	 0.0	 0.0	 0.0	 0.0	 0.0	 0.0	 0.0	 0.0	 0.0	 0.0	 0.0; % NG
	1858	 5.76	 0.0	 6.0	 -6.0	 1.0	 100.0	 1	 9.6	 1.92	 0.0	 0.0	 0.0	 0.0	 0.0	 0.0	 0.0	 0.0	 0.0	 0.0	 0.0; % COW
	134	 15.0	 2.0	 13.0	 -9.0	 1.042	 100.0	 1	 25.0	 5.0	 0.0	 0.0	 0.0	 0.0	 0.0	 0.0	 0.0	 0.0	 0.0	 0.0	 0.0; % PEL
	1204	 25.2	 2.5	 25.0	 -20.0	 0.971	 100.0	 1	 42.0	 8.4	 0.0	 0.0	 0.0	 0.0	 0.0	 0.0	 0.0	 0.0	 0.0	 0.0	 0.0; % NG
	1204	 25.2	 2.5	 25.0	 -20.0	 0.971	 100.0	 1	 42.0	 8.4	 0.0	 0.0	 0.0	 0.0	 0.0	 0.0	 0.0	 0.0	 0.0	 0.0	 0.0; % NG
	641	 6.6	 0.0	 5.0	 -5.0	 1.028	 100.0	 1	 11.0	 2.2	 0.0	 0.0	 0.0	 0.0	 0.0	 0.0	 0.0	 0.0	 0.0	 0.0	 0.0; % NG
	641	 6.6	 0.0	 5.0	 -5.0	 1.028	 100.0	 1	 11.0	 2.2	 0.0	 0.0	 0.0	 0.0	 0.0	 0.0	 0.0	 0.0	 0.0	 0.0	 0.0; % NG
...
];

%% generator cost data
%	2	startup	shutdown	n	c(n-1)	...	c0
mpc.gencost = [
	2	 0.0	 0.0	 3	   0.000000	  55.306951	   0.000000; % NG
	2	 0.0	 0.0	 3	   0.000000	 116.808222	   0.000000; % PEL
	2	 0.0	 0.0	 3	   0.000000	 176.179156	   0.000000; % PEL
	2	 0.0	 0.0	 3	   0.000000	  46.665428	   0.000000; % NG
	2	 0.0	 0.0	 3	   0.000000	  17.394087	   0.000000; % COW
	2	 0.0	 0.0	 3	   0.000000	 114.624409	   0.000000; % PEL
	2	 0.0	 0.0	 3	   0.000000	  29.942413	   0.000000; % NG
	2	 0.0	 0.0	 3	   0.000000	  44.176479	   0.000000; % NG
	2	 0.0	 0.0	 3	   0.000000	  29.618149	   0.000000; % COW
	2	 0.0	 0.0	 3	   0.000000	  36.889237	   0.000000; % NG
	2	 0.0	 0.0	 3	   0.000000	 146.901120	   0.000000; % PEL
	2	 0.0	 0.0	 3	   0.000000	  43.017695	   0.000000; % NG
	2	 0.0	 0.0	 3	   0.000000	  33.668547	   0.000000; % COW
	2	 0.0	 0.0	 3	   0.000000	  51.078046	   0.000000; % NG
	2	 0.0	 0.0	 3	   0.000000	  57.505056	   0.000000; % NG
	2	 0.0	 0.0	 3	   0.000000	  41.159107	   0.000000; % NG
	2	 0.0	 0.0	 3	   0.000000	  20.533799	   0.000000; % COW
	2	 0.0	 0.0	 3	   0.000000	  38.938627	   0.000000; % NG
	2	 0.0	 0.0	 3	   0.000000	  33.565042	   0.000000; % COW
	2	 0.0	 0.0	 3	   0.000000	 126.718315	   0.000000; % PEL
	2	 0.0	 0.0	 3	   0.000000	  26.878322	   0.000000; % COW
	2	 0.0	 0.0	 3	   0.000000	 117.475445	   0.000000; % PEL
	2	 0.0	 0.0	 3	   0.000000	  37.229970	   0.000000; % NG
	2	 0.0	 0.0	 3	   0.000000	  41.549718	   0.000000; % NG
	2	 0.0	 0.0	 3	   0.000000	 159.429791	   0.000000; % PEL
	2	 0.0	 0.0	 3	   0.000000	  76.329096	   0.000000; % NG
	2	 0.0	 0.0	 3	   0.000000	  39.396002	   0.000000; % NG
	2	 0.0	 0.0	 3	   0.000000	  40.431604	   0.000000; % NG
	2	 0.0	 0.0	 3	   0.000000	  18.659951	   0.000000; % NG
	2	 0.0	 0.0	 3	   0.000000	  68.705404	   0.000000; % NG
	2	 0.0	 0.0	 3	   0.000000	 133.370787	   0.000000; % PEL
	2	 0.0	 0.0	 3	   0.000000	  24.744879	   0.000000; % COW
	2	 0.0	 0.0	 3	   0.000000	 102.428336	   0.000000; % PEL
	2	 0.0	 0.0	 3	   0.000000	  40.679220	   0.000000; % NG
	2	 0.0	 0.0	 3	   0.000000	  36.928656	   0.000000; % NG
	2	 0.0	 0.0	 3	   0.000000	  30.366420	   0.000000; % COW
	2	 0.0	 0.0	 3	   0.000000	  34.942682	   0.000000; % NG
	2	 0.0	 0.0	 3	   0.000000	 109.337207	   0.000000; % PEL
	2	 0.0	 0.0	 3	   0.000000	  53.097212	   0.000000; % NG
	2	 0.0	 0.0	 3	   0.000000	 125.321816	   0.000000; % PEL
	2	 0.0	 0.0	 3	   0.000000	 160.426195	   0.000000; % PEL
	2	 0.0	 0.0	 3	   0.000000	  40.767637	   0.000000; % NG
	2	 0.0	 0.0	 3	   0.000000	  40.868545	   0.000000; % NG
	2	 0.0	 0.0	 3	   0.000000	  28.924659	   0.000000; % COW
	2	 0.0	 0.0	 3	   0.000000	 116.996182	   0.000000; % PEL
	2	 0.0	 0.0	 3	   0.000000	 165.145756	   0.000000; % PEL
	2	 0.0	 0.0	 3	   0.000000	  54.445923	   0.000000; % NG
	2	 0.0	 0.0	 3	   0.000000	  57.910661	   0.000000; % NG
	2	 0.0	 0.0	 3	   0.000000	  57.544895	   0.000000; % NG
	2	 0.0	 0.0	 3	   0.000000	  49.126668	   0.000000; % NG
	2	 0.0	 0.0	 3	   0.000000	 139.001915	   0.000000; % PEL
	2	 0.0	 0.0	 3	   0.000000	  44.064091	   0.000000; % NG
	2	 0.0	 0.0	 3	   0.000000	 109.506580	   0.000000; % PEL
	2	 0.0	 0.0	 3	   0.000000	 149.352255	   0.000000; % PEL
	2	 0.0	 0.0	 3	   0.000000	  23.833602	   0.000000; % NG
	2	 0.0	 0.0	 3	   0.000000	  43.823019	   0.000000; % NG
	2	 0.0	 0.0	 3	   0.000000	  36.101375	   0.000000; % COW
	2	 0.0	 0.0	 3	   0.000000	 165.633338	   0.000000; % PEL
	2	 0.0	 0.0	 3	   0.000000	 105.157356	   0.000000; % PEL
	2	 0.0	 0.0	 3	   0.000000	  66.066992	   0.000000; % NG
	2	 0.0	 0.0	 3	   0.000000	 142.634545	   0.000000; % PEL
	2	 0.0	 0.0	 3	   0.000000	  44.953517	   0.000000; % NG
	2	 0.0	 0.0	 3	   0.000000	  42.954910	   0.000000; % NG
	2	 0.0	 0.0	 3	   0.000000	  45.800655	   0.000000; % NG
	2	 0.0	 0.0	 3	   0.000000	 109.324943	   0.000000; % PEL
	2	 0.0	 0.0	 3	   0.000000	  49.190936	   0.000000; % NG
	2	 0.0	 0.0	 3	   0.000000	  38.336489	   0.000000; % NG
	2	 0.0	 0.0	 3	   0.000000	 116.125031	   0.000000; % PEL
	2	 0.0	 0.0	 3	   0.000000	  26.432558	   0.000000; % NG
	2	 0.0	 0.0	 3	   0.000000	 113.318787	   0.000000; % PEL
	2	 0.0	 0.0	 3	   0.000000	 118.936568	   0.000000; % PEL
	2	 0.0	 0.0	 3	   0.000000	 126.980026	   0.000000; % PEL
	2	 0.0	 0.0	 3	   0.000000	  49.285676	   0.000000; % NG
	2	 0.0	 0.0	 3	   0.000000	  46.543599	   0.000000; % NG
	2	 0.0	 0.0	 3	   0.000000	 140.987379	   0.000000; % PEL
	2	 0.0	 0.0	 3	   0.000000	  15.927635	   0.000000; % COW
	2	 0.0	 0.0	 3	   0.000000	 150.724592	   0.000000; % PEL
	2	 0.0	 0.0	 3	   0.000000	 159.505856	   0.000000; % PEL
	2	 0.0	 0.0	 3	   0.000000	  20.541145	   0.000000; % COW
	2	 0.0	 0.0	 3	   0.000000	  91.368538	   0.000000; % PEL
	2	 0.0	 0.0	 3	   0.000000	  33.546548	   0.000000; % NG
	2	 0.0	 0.0	 3	   0.000000	 125.937893	   0.000000; % PEL
	2	 0.0	 0.0	 3	   0.000000	  35.264305	   0.000000; % NG
	2	 0.0	 0.0	 3	   0.000000	 143.448117	   0.000000; % PEL
	2	 0.0	 0.0	 3	   0.000000	 111.434995	   0.000000; % PEL
	2	 0.0	 0.0	 3	   0.000000	 119.663067	   0.000000; % PEL
	2	 0.0	 0.0	 3	   0.000000	  26.470574	   0.000000; % COW
	2	 0.0	 0.0	 3	   0.000000	  45.794649	   0.000000; % NG
	2	 0.0	 0.0	 3	   0.000000	 128.410702	   0.000000; % PEL
	2	 0.0	 0.0	 3	   0.000000	  34.729193	   0.000000; % NG
	2	 0.0	 0.0	 3	   0.000000	  33.433264	   0.000000; % COW
	2	 0.0	 0.0	 3	   0.000000	 119.104601	   0.000000; % PEL
	2	 0.0	 0.0	 3	   0.000000	 117.323877	   0.000000; % PEL
	2	 0.0	 0.0	 3	   0.000000	 138.926739	   0.000000; % PEL
	2	 0.0	 0.0	 3	   0.000000	  49.830649	   0.000000; % NG
	2	 0.0	 0.0	 3	   0.000000	 124.610589	   0.000000; % PEL
	2	 0.0	 0.0	 3	   0.000000	  52.539402	   0.000000; % NG
	2	 0.0	 0.0	 3	   0.000000	  47.978457	   0.000000; % NG
	2	 0.0	 0.0	 3	   0.000000	 118.681388	   0.000000; % PEL
	2	 0.0	 0.0	 3	   0.000000	 147.951587	   0.000000; % PEL
	2	 0.0	 0.0	 3	   0.000000	 130.744213	   0.000000; % PEL
	2	 0.0	 0.0	 3	   0.000000	 138.671474	   0.000000; % PEL
	2	 0.0	 0.0	 3	   0.000000	  38.813698	   0.000000; % NG
	2	 0.0	 0.0	 3	   0.000000	  61.663589	   0.000000; % NG
	2	 0.0	 0.0	 3	   0.000000	  39.854286	   0.000000; % NG
	2	 0.0	 0.0	 3	   0.000000	 123.055618	   0.000000; % PEL
	2	 0.0	 0.0	 3	   0.000000	 153.328392	   0.000000; % PEL
	2	 0.0	 0.0	 3	   0.000000	 126.970105	   0.000000; % PEL
	2	 0.0	 0.0	 3	   0.000000	 122.911631	   0.000000; % PEL
	2	 0.0	 0.0	 3	   0.000000	  37.450401	   0.000000; % NG
	2	 0.0	 0.0	 3	   0.000000	  21.116431	   0.000000; % COW
	2	 0.0	 0.0	 3	   0.000000	 152.712792	   0.000000; % PEL
	2	 0.0	 0.0	 3	   0.000000	  34.285475	   0.000000; % NG
	2	 0.0	 0.0	 3	   0.000000	 107.256806	   0.000000; % PEL
	2	 0.0	 0.0	 3	   0.000000	 166.612570	   0.000000; % PEL
	2	 0.0	 0.0	 3	   0.000000	  96.190193	   0.000000; % PEL
	2	 0.0	 0.0	 3	   0.000000	 132.472700	   0.000000; % PEL
	2	 0.0	 0.0	 3	   0.000000	 134.275479	   0.000000; % PEL
	2	 0.0	 0.0	 3	   0.000000	  32.150813	   0.000000; % NG
	2	 0.0	 0.0	 3	   0.000000	 142.061333	   0.000000; % PEL
	2	 0.0	 0.0	 3	   0.000000	  49.615419	   0.000000; % NG
	2	 0.0	 0.0	 3	   0.000000	 138.628305	   0.000000; % PEL
	2	 0.0	 0.0	 3	   0.000000	  51.428876	   0.000000; % NG
	2	 0.0	 0.0	 3	   0.000000	  29.794022	   0.000000; % COW
	2	 0.0	 0.0	 3	   0.000000	 114.344139	   0.000000; % PEL
	2	 0.0	 0.0	 3	   0.000000	  44.883803	   0.000000; % NG
	2	 0.0	 0.0	 3	   0.000000	  34.007932	   0.000000; % NG
	2	 0.0	 0.0	 3	   0.000000	  61.460067	   0.000000; % NG
	2	 0.0	 0.0	 3	   0.000000	 126.216816	   0.000000; % PEL
	2	 0.0	 0.0	 3	   0.000000	  39.248215	   0.000000; % NG
	2	 0.0	 0.0	 3	   0.000000	  42.772149	   0.000000; % NG
	2	 0.0	 0.0	 3	   0.000000	 152.623085	   0.000000; % PEL
	2	 0.0	 0.0	 3	   0.000000	 102.626581	   0.000000; % PEL
	2	 0.0	 0.0	 3	   0.000000	 119.218044	   0.000000; % PEL
	2	 0.0	 0.0	 3	   0.000000	 115.195439	   0.000000; % PEL
	2	 0.0	 0.0	 3	   0.000000	  19.727956	   0.000000; % COW
	2	 0.0	 0.0	 3	   0.000000	  21.103479	   0.000000; % NG
	2	 0.0	 0.0	 3	   0.000000	  61.157229	   0.000000; % NG
	2	 0.0	 0.0	 3	   0.000000	  35.352244	   0.000000; % NG
	2	 0.0	 0.0	 3	   0.000000	 129.898118	   0.000000; % PEL
	2	 0.0	 0.0	 3	   0.000000	 101.761486	   0.000000; % PEL
	2	 0.0	 0.0	 3	   0.000000	  38.116886	   0.000000; % NG
	2	 0.0	 0.0	 3	   0.000000	  38.276278	   0.000000; % NG
	2	 0.0	 0.0	 3	   0.000000	  51.346471	   0.000000; % NG
	2	 0.0	 0.0	 3	   0.000000	  48.454519	   0.000000; % NG
	2	 0.0	 0.0	 3	   0.000000	  40.894954	   0.000000; % NG
	2	 0.0	 0.0	 3	   0.000000	  60.775523	   0.000000; % NG
	2	 0.0	 0.0	 3	   0.000000	 116.703993	   0.000000; % PEL
	2	 0.0	 0.0	 3	   0.000000	 123.226986	   0.000000; % PEL
	2	 0.0	 0.0	 3	   0.000000	  45.195095	   0.000000; % NG
	2	 0.0	 0.0	 3	   0.000000	 112.458560	   0.000000; % PEL
	2	 0.0	 0.0	 3	   0.000000	  44.433639	   0.000000; % NG
	2	 0.0	 0.0	 3	   0.000000	  26.951003	   0.000000; % COW
	2	 0.0	 0.0	 3	   0.000000	  49.418649	   0.000000; % NG
	2	 0.0	 0.0	 3	   0.000000	 169.329310	   0.000000; % PEL
	2	 0.0	 0.0	 3	   0.000000	 147.467161	   0.000000; % PEL
	2	 0.0	 0.0	 3	   0.000000	 148.926006	   0.000000; % PEL
	2	 0.0	 0.0	 3	   0.000000	  48.773920	   0.000000; % NG
	2	 0.0	 0.0	 3	   0.000000	  37.003293	   0.000000; % COW
	2	 0.0	 0.0	 3	   0.000000	  41.544038	   0.000000; % NG
	2	 0.0	 0.0	 3	   0.000000	  25.452633	   0.000000; % NG
	2	 0.0	 0.0	 3	   0.000000	  54.223568	   0.000000; % NG
	2	 0.0	 0.0	 3	   0.000000	 104.174161	   0.000000; % PEL
	2	 0.0	 0.0	 3	   0.000000	  60.082122	   0.000000; % NG
	2	 0.0	 0.0	 3	   0.000000	  33.244309	   0.000000; % NG
	2	 0.0	 0.0	 3	   0.000000	  44.461230	   0.000000; % NG
	2	 0.0	 0.0	 3	   0.000000	  48.666967	   0.000000; % NG
	2	 0.0	 0.0	 3	   0.000000	  66.824205	   0.000000; % NG
	2	 0.0	 0.0	 3	   0.000000	  49.810270	   0.000000; % NG
	2	 0.0	 0.0	 3	   0.000000	  38.490012	   0.000000; % NG
	2	 0.0	 0.0	 3	   0.000000	 121.348845	   0.000000; % PEL
	2	 0.0	 0.0	 3	   0.000000	  48.368294	   0.000000; % NG
	2	 0.0	 0.0	 3	   0.000000	  39.084705	   0.000000; % NG
	2	 0.0	 0.0	 3	   0.000000	  32.935718	   0.000000; % COW
	2	 0.0	 0.0	 3	   0.000000	  35.130655	   0.000000; % COW
	2	 0.0	 0.0	 3	   0.000000	 135.721195	   0.000000; % PEL
	2	 0.0	 0.0	 3	   0.000000	  47.376056	   0.000000; % NG
	2	 0.0	 0.0	 3	   0.000000	  46.258709	   0.000000; % NG
	2	 0.0	 0.0	 3	   0.000000	 119.461364	   0.000000; % PEL
	2	 0.0	 0.0	 3	   0.000000	  32.684928	   0.000000; % NG
	2	 0.0	 0.0	 3	   0.000000	  33.985329	   0.000000; % NG
	2	 0.0	 0.0	 3	   0.000000	 129.808292	   0.000000; % PEL
	2	 0.0	 0.0	 3	   0.000000	 144.918850	   0.000000; % PEL
	2	 0.0	 0.0	 3	   0.000000	 126.839400	   0.000000; % PEL
	2	 0.0	 0.0	 3	   0.000000	 130.571258	   0.000000; % PEL
	2	 0.0	 0.0	 3	   0.000000	 142.609149	   0.000000; % PEL
	2	 0.0	 0.0	 3	   0.000000	  44.299922	   0.000000; % NG
	2	 0.0	 0.0	 3	   0.000000	  37.841092	   0.000000; % NG
	2	 0.0	 0.0	 3	   0.000000	  46.362957	   0.000000; % NG
	2	 0.0	 0.0	 3	   0.000000	  41.484335	   0.000000; % NG
	2	 0.0	 0.0	 3	   0.000000	 139.824229	   0.000000; % PEL
	2	 0.0	 0.0	 3	   0.000000	   0.000000	   0.000000; % SYNC
	2	 0.0	 0.0	 3	   0.000000	   0.000000	   0.000000; % SYNC
	2	 0.0	 0.0	 3	   0.000000	  56.401859	   0.000000; % NG
	2	 0.0	 0.0	 3	   0.000000	  34.661411	   0.000000; % COW
	2	 0.0	 0.0	 3	   0.000000	 139.878440	   0.000000; % PEL
	2	 0.0	 0.0	 3	   0.000000	  55.503829	   0.000000; % NG
	2	 0.0	 0.0	 3	   0.000000	  66.262960	   0.000000; % NG
	2	 0.0	 0.0	 3	   0.000000	  39.241335	   0.000000; % NG
	2	 0.0	 0.0	 3	   0.000000	  38.280529	   0.000000; % NG
...
];

%% branch data
%	fbus	tbus	r	x	b	rateA	rateB	rateC	ratio	angle	status	angmin	angmax
mpc.branch = [
	639	 1	 0.005799	 0.010615	 0.0075	 2441	 2441	 2441	 1.0	 0.0	 1	 -30.0	 30.0;
	909	 2	 0.002607	 0.017462	 0.0324	 540.0	 540.0	 540.0	 1.0	 0.0	 1	 -30.0	 30.0;
	2575	 3	 2.1e-05	 0.000125	 0.1386	 737.0	 737.0	 737.0	 1.0	 0.0	 1	 -30.0	 30.0;
	875	 3	 0.000145	 0.001877	 0.0635	 2487.0	 2487.0	 2487.0	 1.0	 0.0	 1	 -30.0	 30.0;
	1710	 3	 0.000319	 0.003234	 0.0838	 1841.0	 1841.0	 1841.0	 1.0	 0.0	 1	 -30.0	 30.0;
	46	 3	 2.1e-05	 0.000125	 0.1386	 737.0	 737.0	 737.0	 1.0	 0.0	 1	 -30.0	 30.0;
	1073	 4	 0.037541	 0.100529	 0.0011	 284	 284	 284	 1.0	 0.0	 1	 -30.0	 30.0;
	1533	 4	 0.090199	 0.211388	 0.0023	 133	 133	 133	 1.0	 0.0	 1	 -30.0	 30.0;
	1658	 4	 0.09801	 0.267574	 0.0	 107	 107	 107	 1.0	 0.0	 1	 -30.0	 30.0;
	1370	 5	 0.009383	 0.019753	 0.0	 1194	 1194	 1194	 1.0	 0.0	 1	 -30.0	 30.0;
	1370	 6	 0.001975	 0.004444	 0.0	 5369	 5369	 5369	 1.0	 0.0	 1	 -30.0	 30.0;
	199	 7	 0.006163	 0.041067	 0.0759	 446.0	 446.0	 446.0	 1.0	 0.0	 1	 -30.0	 30.0;
	880	 7	 0.000652	 0.004369	 0.0081	 558.0	 558.0	 558.0	 1.0	 0.0	 1	 -30.0	 30.0;
	1061	 8	 0.067019	 0.137566	 0.0037	 193	 193	 193	 1.0	 0.0	 1	 -30.0	 30.0;
	1223	 8	 0.032754	 0.088939	 0.0039	 312	 312	 312	 1.0	 0.0	 1	 -30.0	 30.0;
	1223	 8	 0.030184	 0.080096	 0.0053	 345	 345	 345	 1.0	 0.0	 1	 -30.0	 30.0;
	1371	 10	 0.009733	 0.034089	 0.0185	 944	 944	 944	 1.0	 0.0	 1	 -30.0	 30.0;
	147	 11	 0.000277	 0.002015	 0.003	 288.0	 288.0	 288.0	 1.0	 0.0	 1	 -30.0	 30.0;
	387	 2571	 0.00881	 0.033995	 0.0607	 289.0	 289.0	 289.0	 1.0	 0.0	 1	 -30.0	 30.0;
	437	 2571	 0.004642	 0.019832	 0.0354	 255.0	 255.0	 255.0	 1.0	 0.0	 1	 -30.0	 30.0;
	955	 11	 0.008861	 0.03506	 0.0623	 288.0	 288.0	 288.0	 1.0	 0.0	 1	 -30.0	 30.0;
	991	 11	 0.006993	 0.032869	 0.0557	 255.0	 255.0	 255.0	 1.0	 0.0	 1	 -30.0	 30.0;
	1774	 2571	 0.002173	 0.008731	 0.0152	 3441	 3441	 3441	 1.0	 0.0	 1	 -30.0	 30.0;
	1817	 11	 0.00077	 0.003121	 0.0051	 9629	 9629	 9629	 1.0	 0.0	 1	 -30.0	 30.0;
	2092	 2571	 0.004109	 0.016138	 0.0284	 288.0	 288.0	 288.0	 1.0	 0.0	 1	 -30.0	 30.0;
	2591	 12	 8.3e-05	 0.000907	 0.0202	 1034.0	 1034.0	 1034.0	 1.0	 0.0	 1	 -30.0	 30.0;
	419	 12	 0.000552	 0.006726	 0.0939	 1786.0	 1786.0	 1786.0	 1.0	 0.0	 1	 -30.0	 30.0;
	808	 12	 0.000512	 0.008012	 0.2455	 2462.0	 2462.0	 2462.0	 1.0	 0.0	 1	 -30.0	 30.0;
	1158	 12	 0.001107	 0.00918	 0.1906	 1644.0	 1644.0	 1644.0	 1.0	 0.0	 1	 -30.0	 30.0;
	148	 12	 6.2e-05	 0.000741	 0.0173	 1095.0	 1095.0	 1095.0	 1.0	 0.0	 1	 -30.0	 30.0;
	808	 12	 0.000512	 0.008019	 0.2455	 2462.0	 2462.0	 2462.0	 1.0	 0.0	 1	 -30.0	 30.0;
	808	 12	 0.001153	 0.013123	 0.1841	 1433.0	 1433.0	 1433.0	 1.0	 0.0	 1	 -30.0	 30.0;
	167	 13	 0.000158	 0.000672	 0.0719	 331.0	 331.0	 331.0	 1.0	 0.0	 1	 -30.0	 30.0;
	1463	 13	 4.5e-05	 8.9e-05	 0.002	 268.0	 268.0	 268.0	 1.0	 0.0	 1	 -30.0	 30.0;
	820	 14	 0.033258	 0.090955	 0.001	 305	 305	 305	 1.0	 0.0	 1	 -30.0	 30.0;
	465	 15	 0.071303	 0.180902	 0.0021	 152	 152	 152	 1.0	 0.0	 1	 -30.0	 30.0;
	878	 15	 0.071554	 0.18191	 0.0021	 152	 152	 152	 1.0	 0.0	 1	 -30.0	 30.0;
	2664	 16	 0.00478	 0.028622	 0.0547	 455.0	 455.0	 455.0	 1.0	 0.0	 1	 -30.0	 30.0;
	451	 16	 0.00478	 0.028583	 0.0547	 455.0	 455.0	 455.0	 1.0	 0.0	 1	 -30.0	 30.0;
	151	 17	 0.000257	 0.000514	 0.0294	 53862	 53862	 53862	 1.0	 0.0	 1	 -30.0	 30.0;
	987	 18	 0.000257	 0.002153	 0.2147	 452.0	 452.0	 452.0	 1.0	 0.0	 1	 -30.0	 30.0;
	1264	 18	 0.000277	 0.000869	 0.0931	 481.0	 481.0	 481.0	 1.0	 0.0	 1	 -30.0	 30.0;
	1903	 19	 0.000756	 0.00252	 0.0	 11716	 11716	 11716	 1.0	 0.0	 1	 -30.0	 30.0;
	1247	 20	 0.000237	 0.00083	 0.1863	 268.0	 268.0	 268.0	 1.0	 0.0	 1	 -30.0	 30.0;
	1301	 20	 0.000178	 0.000612	 0.1377	 268.0	 268.0	 268.0	 1.0	 0.0	 1	 -30.0	 30.0;
	59	 21	 0.002568	 0.011753	 0.0203	 424.0	 424.0	 424.0	 1.0	 0.0	 1	 -30.0	 30.0;
	1908	 21	 0.002568	 0.011615	 0.0228	 290.0	 290.0	 290.0	 1.0	 0.0	 1	 -30.0	 30.0;
	591	 22	 0.102293	 0.226757	 0.0025	 122	 122	 122	 1.0	 0.0	 1	 -30.0	 30.0;
	855	 22	 0.177551	 0.405291	 0.0046	 68	 68	 68	 1.0	 0.0	 1	 -30.0	 30.0;
	1199	 22	 0.088264	 0.161566	 0.0017	 163	 163	 163	 1.0	 0.0	 1	 -30.0	 30.0;
	820	 23	 0.043336	 0.11867	 0.001	 234	 234	 234	 1.0	 0.0	 1	 -30.0	 30.0;
	1059	 23	 0.067775	 0.139834	 0.001	 191	 191	 191	 1.0	 0.0	 1	 -30.0	 30.0;
...